%nproc=1
%mem=1GB
%Chk=10.chk
#T PM6 OPT

c(s1)c(O)c(C(=O)O)c1~c(s1)c(C#N)c(C(F)(F)F)c1_0_8

0  1
C           4.02750         1.99464         4.02870
S           2.98923         0.94554         3.24933
C           5.30767         1.52630         3.98784
C           6.34793         2.28276         4.65296
N           7.12672         2.90504         5.21250
C           5.44149         0.27697         3.23348
C           6.80530        -0.30242         2.98626
F           7.79491         0.45109         3.53583
F           6.94869        -1.53828         3.51736
F           7.08700        -0.36651         1.66345
C           4.18087        -0.22956         2.81888
C           3.74401        -1.49132         2.11863
S           4.93804        -2.66514         1.63243
C           3.84485        -3.81444         0.97761
C           2.57119        -3.30133         1.11637
O           1.50368        -4.00815         0.67342
C           2.46756        -1.98270         1.74544
C           1.14326        -1.35721         1.91372
O           0.80920        -0.32864         2.47386
O           0.11646        -2.04938         1.35090
C           4.25850        -5.11008         0.38377
S           3.27397        -6.50653         0.49722
C           5.41529        -5.46925        -0.28405
C           6.51746        -4.55375        -0.43376
N           7.41442        -3.82339        -0.52091
C           5.40459        -6.84243        -0.83327
C           6.54544        -7.32556        -1.69043
F           7.47427        -6.36507        -1.92687
F           7.21434        -8.34922        -1.11125
F           6.11867        -7.72258        -2.91356
C           4.25774        -7.57621        -0.45149
C           3.83842        -9.02025        -0.70317
S           4.89560       -10.10928        -1.57607
C           3.93283       -11.53218        -1.44943
C           2.78227       -11.16714        -0.77435
O           1.79387       -12.07119        -0.57233
C           2.70556        -9.77355        -0.32759
C           1.52789        -9.36680         0.43364
O           0.87938       -10.13571         1.13452
O           1.05275        -8.13260         0.21455
C           4.31316       -12.86634        -2.01720
S           3.31281       -14.26002        -1.81914
C           5.43462       -13.27520        -2.72667
C           6.57472       -12.42224        -2.94685
N           7.53262       -11.79224        -3.12509
C           5.36858       -14.65268        -3.27663
C           6.37769       -15.09818        -4.30067
F           7.33021       -14.16608        -4.55654
F           7.07043       -16.19893        -3.94929
F           5.78840       -15.35401        -5.49340
C           4.27775       -15.37609        -2.76716
C           3.78401       -16.79763        -2.89768
S           2.03145       -17.05263        -2.85898
C           2.13070       -18.74513        -2.93978
C           3.42976       -19.15094        -3.01184
O           3.77231       -20.45810        -3.03196
C           4.38512       -18.06742        -3.04692
C           5.78183       -18.40601        -3.20393
O           6.22871       -19.21344        -4.00809
O           6.61401       -17.76804        -2.36189
H           3.64900         2.90350         4.47935
H           0.67361        -3.51410         0.84635
H          -0.62139        -1.42525         1.54684
H           1.07835       -11.71879        -0.00693
H           0.31576        -8.03283         0.85076
H           1.23986       -19.36031        -2.92623
H           2.99803       -21.04688        -3.01850
H           7.47932       -17.97124        -2.78203


--Link1--
%nproc=1
%mem=1GB
%Chk=10.chk
%NoSave
# Geom=AllCheck ZINDO(NStates=15,Singlets)
