%nproc=1
%mem=1GB
%Chk=13.chk
#T PM6 OPT

c(s1)cc(c12)[nH]c(c2s3)cc3~C(C1=O)=C(C=CC=C2)C2=C1_3_3

0  1
C           0.64208        -2.42065        -5.62527
S          -1.01208        -2.91526        -5.36603
C           1.08723        -1.41245        -4.77565
C           0.03729        -1.05532        -3.88969
C          -1.07374        -1.78561        -4.13830
N          -0.29104        -0.23575        -2.84565
H           0.33352         0.43959        -2.42468
C          -1.57645        -0.47684        -2.44112
C          -2.04638        -1.43192        -3.27027
S          -3.61379        -1.96162        -3.04431
C          -2.56430        -0.10419        -1.49147
C          -3.73117        -0.85556        -1.67793
C          -4.94045        -0.80062        -0.93928
C          -6.08638         0.11378        -1.19381
O          -6.15234         0.93564        -2.08739
C          -5.29891        -1.51282         0.13662
C          -4.58196        -2.54488         0.86672
C          -5.17856        -3.11758         1.93313
C          -6.51757        -2.72903         2.37368
C          -7.23156        -1.77963         1.73622
C          -6.64404        -1.12770         0.57755
C          -7.15988        -0.16547        -0.19874
C          -8.43189         0.48716        -0.16132
C          -8.63057         1.95446         0.03504
O          -7.74926         2.76670         0.19890
C          -9.67637        -0.00357        -0.26167
C         -10.10847        -1.37446        -0.46614
C         -11.42977        -1.63326        -0.53441
C         -12.43257        -0.57599        -0.41130
C         -12.09244         0.71529        -0.21923
C         -10.68108         1.05559        -0.13808
C         -10.09310         2.24087         0.05226
C         -10.69896         3.50685         0.24905
S         -11.11580         4.00561         1.88416
C         -11.01517         4.47960        -0.70908
C         -11.55033         5.63872        -0.08313
C         -11.62913         5.46166         1.25064
N         -12.01903         6.90730        -0.31047
H         -12.07824         7.34754        -1.21966
C         -12.37226         7.50361         0.87230
C         -12.12531         6.58012         1.81949
S         -12.47220         6.96903         3.39608
C         -12.88689         8.69658         1.45540
C         -12.98817         8.57744         2.85515
C         -13.48318         9.53904         3.79709
C         -14.51546        10.58632         3.51346
O         -15.05854        10.77638         2.43771
C         -13.15651         9.74242         5.08555
C         -12.18599         9.06515         5.93312
C         -12.04360         9.44489         7.21590
C         -12.82746        10.53285         7.78398
C         -13.72858        11.22292         7.05468
C         -13.93623        10.85403         5.66006
C         -14.76921        11.37442         4.74891
C         -15.69520        12.44461         4.89672
S         -17.32702        12.09003         5.46181
C         -15.51333        13.81007         4.62456
C         -16.68957        14.54785         4.93813
C         -17.65920        13.72429         5.38591
N         -17.23596        15.80560         4.96285
H         -16.76497        16.65223         4.67056
C         -18.51851        15.75642         5.43895
C         -18.75372        14.45055         5.70029
S         -20.24764        14.02653         6.31299
C         -19.66000        16.54537         5.74480
C         -20.66808        15.71819         6.23220
H           1.20550        -2.91215        -6.40793
H           2.08342        -0.98924        -4.80203
H          -2.44409         0.64654        -0.72109
H          -3.58597        -2.84328         0.55713
H          -4.67491        -3.89221         2.50572
H          -6.92372        -3.23163         3.24770
H          -8.21987        -1.49874         2.08331
H          -9.37994        -2.17201        -0.56282
H         -11.78871        -2.64755        -0.68667
H         -13.47656        -0.86998        -0.48131
H         -12.84718         1.48922        -0.12913
H         -10.83950         4.36054        -1.77081
H         -13.17123         9.58659         0.90483
H         -11.56879         8.26098         5.55654
H         -11.32434         8.94295         7.85806
H         -12.65187        10.76944         8.82950
H         -14.29364        12.03437         7.49901
H         -14.59521        14.23469         4.23922
H         -19.76022        17.61702         5.62557
H         -21.65947        16.01192         6.55291


--Link1--
%nproc=1
%mem=1GB
%Chk=13.chk
%NoSave
# Geom=AllCheck ZINDO(NStates=15,Singlets)
