%nproc=1
%mem=1GB
%Chk=14.chk
#T PM6 OPT

c(s1)c(SC(=O)C(=O)S2)c2c1~c(cc1)ccc1C=C_1_6

0  1
C          -5.47885        -9.83363         4.44305
C          -5.67419        -8.78978         5.25782
C          -6.51881        -7.65348         4.89149
C          -5.96707        -6.55603         4.23499
C          -6.76453        -5.45041         3.88976
C          -8.14045        -5.39688         4.18981
C          -8.66780        -6.51667         4.86124
C          -7.87669        -7.63164         5.19923
C          -8.98579        -4.21371         3.80290
S          -8.26360        -2.64361         3.76312
C         -10.32984        -4.09429         3.46295
S         -11.47316        -5.46463         3.44534
C         -13.00240        -4.66325         3.40675
O         -13.92594        -4.74579         4.20200
C         -12.99782        -3.93093         2.09653
O         -13.47015        -4.32499         1.04003
S         -12.33954        -2.37150         2.45245
C         -10.70490        -2.74702         3.06492
C          -9.66870        -1.81214         3.19248
C          -9.63439        -0.33697         2.97313
S         -11.05152         0.61003         3.26188
C          -8.60369         0.53433         2.59566
S          -6.96302         0.04307         2.11133
C          -6.06263         1.47469         2.49760
O          -5.19944         1.61828         3.34507
C          -6.54207         2.50028         1.50594
O          -6.07172         2.74370         0.41004
S          -7.85203         3.28456         2.30985
C          -8.98651         1.93357         2.60037
C         -10.33201         2.12013         2.87167
C         -11.16679         3.35042         2.87618
C         -12.25117         3.49469         3.74619
C         -13.02219         4.65847         3.75028
C         -10.90692         4.42142         2.00196
C         -11.65452         5.60885         2.03413
C         -12.73147         5.73981         2.91158
C         -13.52026         6.98415         2.94477
C         -14.59173         7.15762         3.73566
C         -15.36754         8.36841         3.79894
C         -16.66693         8.36049         4.13343
C         -17.44946         9.59079         4.20941
C         -17.52882        10.29701         5.40758
C         -18.28735        11.47094         5.48624
C         -18.94917        11.99518         4.36539
C         -18.86067        11.26363         3.16706
C         -18.13207        10.06950         3.09174
C         -19.71546        13.26491         4.44697
S         -21.14717        13.42612         3.48320
C         -19.51370        14.42638         5.19107
S         -18.15256        14.71289         6.29306
C         -18.21976        16.42848         6.52462
O         -17.32451        17.23219         6.36353
C         -19.58095        16.70629         7.12131
O         -19.85169        16.81015         8.29987
S         -20.62281        16.97768         5.76105
C         -20.53067        15.40843         4.96501
C         -21.45517        15.00451         4.03537
H          -5.94946        -9.90138         3.46696
H          -4.82714       -10.64979         4.74114
H          -5.18272        -8.73821         6.22547
H          -4.90768        -6.54783         3.98637
H          -6.26636        -4.63237         3.37543
H          -9.70950        -6.56148         5.16104
H          -8.33506        -8.47429         5.71426
H         -12.53323         2.71581         4.44971
H         -13.85441         4.68947         4.44450
H         -10.11301         4.36389         1.26333
H         -11.37259         6.41590         1.35951
H         -13.20610         7.77437         2.26526
H         -14.93515         6.37492         4.40424
H         -14.84496         9.29689         3.58713
H         -17.21050         7.44068         4.33576
H         -17.01158         9.93910         6.29495
H         -18.35123        11.95537         6.45544
H         -19.35819        11.60603         2.26221
H         -18.10596         9.52281         2.15172
H         -22.31289        15.54872         3.66224


--Link1--
%nproc=1
%mem=1GB
%Chk=14.chk
%NoSave
# Geom=AllCheck ZINDO(NStates=15,Singlets)
