%nproc=1
%mem=1GB
%Chk=16.chk
#T PM6 OPT

c(s1)c(OC(=S)O2)c2c1~c(s1)c(N(=O)=O)c(N)c1_1_0

0  1
C           6.08273         3.12181        -0.48212
S           4.82382         2.00840        -0.76581
C           7.18619         2.52994         0.10083
N           8.36906         3.29448         0.43723
O           8.35691         4.50195         0.17451
O           9.31259         2.68643         0.96996
C           6.97666         1.12203         0.31664
N           7.89211         0.31208         0.89876
C           5.72543         0.69089        -0.11687
C           5.14467        -0.63618        -0.08201
S           6.09733        -2.08254        -0.21169
C           3.84211        -1.03467         0.00204
O           2.66743        -0.38341         0.05988
C           1.72835        -1.40274         0.11031
S           0.10519        -1.15626         0.13157
O           2.31832        -2.65855         0.11578
C           3.63586        -2.39897         0.03756
C           4.75741        -3.18599        -0.03037
C           4.88847        -4.64220        -0.01510
S           3.46025        -5.61733         0.06420
C           5.99928        -5.48053        -0.06070
N           7.36231        -5.02788        -0.07085
O           7.75205        -4.40098         0.92667
O           8.05256        -5.35745        -1.03921
C           5.66341        -6.88569        -0.08920
N           6.59726        -7.87173        -0.15992
C           4.29970        -7.11429         0.01470
C           3.57953        -8.37828         0.05816
S           2.11526        -8.62321         0.97740
C           3.86333        -9.57332        -0.53810
O           4.85436        -9.98402        -1.34737
C           4.53327       -11.30680        -1.61705
S           5.45700       -12.28386        -2.55866
O           3.35496       -11.70024        -0.99153
C           2.96707       -10.60334        -0.31578
C           1.90234       -10.30449         0.48962
C           0.75746       -11.10041         0.92215
S          -0.76150       -10.31671         1.20284
C           0.60848       -12.46751         1.13980
N           1.66281       -13.43179         0.99700
O           2.67507       -13.25551         1.69652
O           1.45928       -14.37944         0.23682
C          -0.72187       -12.84106         1.56244
N          -1.09242       -14.11187         1.85873
C          -1.58356       -11.75660         1.63816
C          -2.98404       -11.71078         2.02169
S          -3.68771       -12.84279         3.16504
C          -3.98638       -10.85471         1.64518
O          -4.06795        -9.79948         0.81433
C          -5.40143        -9.40965         0.90435
S          -6.04794        -8.14385         0.08089
O          -6.12799       -10.21578         1.77108
C          -5.21880       -11.09775         2.20974
C          -5.27126       -12.14699         3.06841
H           5.95269         4.16208        -0.75310
H           8.79512         0.65921         1.23251
H           7.74201        -0.67805         1.07995
H           7.55797        -7.67833        -0.45155
H           6.34461        -8.83696        -0.36010
H          -0.49369       -14.92717         1.73058
H          -2.04498       -14.35514         2.12656
H          -6.10481       -12.54003         3.63429


--Link1--
%nproc=1
%mem=1GB
%Chk=16.chk
%NoSave
# Geom=AllCheck ZINDO(NStates=15,Singlets)
