%nproc=1
%mem=1GB
%Chk=2.chk
#T PM6 OPT

c(s1)cc(c12)C(=C(C#N)C#N)c(c2s3)cc3~c(s1)c(OC=N2)c2c1_1_1

0  1
C           0.82207        -7.45522         2.72973
S           1.76254        -6.09775         2.22136
C           1.19384        -8.48368         1.96050
O           0.76421        -9.77156         1.96542
C           1.59112       -10.24743         0.93232
N           2.44911        -9.40226         0.32787
C           2.16066        -8.27142         1.01539
C           2.64339        -6.99591         0.98953
C           3.68713        -6.41835         0.17493
S           4.13525        -4.74401         0.33165
C           4.48005        -7.06890        -0.77877
C           5.45085        -6.19645        -1.32221
C           5.35799        -4.94387        -0.76328
C           6.58396        -6.21802        -2.25224
C           6.96474        -7.20827        -3.08156
C           8.07424        -7.05550        -3.96082
N           8.97589        -6.92230        -4.67526
C           6.26344        -8.44087        -3.14762
N           5.69583        -9.45337        -3.21075
C           7.19090        -4.89281        -2.09354
C           6.41923        -4.14977        -1.23187
S           6.98248        -2.62740        -0.91139
C           8.35196        -4.18526        -2.48311
C           8.40810        -2.93496        -1.86413
C           9.47430        -1.97731        -1.88965
S           9.25838        -0.26948        -1.77842
C          10.79914        -2.19141        -1.93641
O          11.50938        -3.35019        -2.00935
C          12.79810        -2.78692        -1.96406
N          12.93484        -1.45080        -1.85972
C          11.62896        -1.10130        -1.84921
C          10.97589         0.08798        -1.75046
C          11.45614         1.43455        -1.58713
S          10.52389         2.75137        -2.23389
C          12.59986         1.89005        -0.91674
C          12.58414         3.30355        -0.79526
C          11.47995         3.82658        -1.42874
C          13.33516         4.41783        -0.18788
C          14.62531         4.44947         0.22008
C          15.27851         5.69442         0.23620
N          15.81325         6.71359         0.24940
C          15.37663         3.26114         0.23479
N          15.99169         2.28832         0.24683
C          12.42905         5.56100        -0.33992
C          11.37861         5.19295        -1.13968
S          10.22804         6.34917        -1.38441
C          12.22596         6.84747         0.21194
C          10.99589         7.36855        -0.19850
C          10.34454         8.57618         0.24763
S           8.60478         8.68665         0.25698
C          10.93823         9.75166         0.70976
C           9.96255        10.75050         0.93288
C           8.69808        10.28151         0.67051
C           9.87868        12.17692         1.25377
C          10.85743        12.97716         1.71597
C          10.61891        14.34352         2.02294
N          10.42573        15.45897         2.27791
C          12.16554        12.47800         1.96553
N          13.22625        12.05454         2.17182
C           8.47204        12.50773         1.00401
C           7.78937        11.35008         0.71562
S           6.18239        11.53213         0.37280
C           7.63183        13.63729         0.86886
C           6.34024        13.25932         0.48567
C           5.23285        14.11268         0.14266
S           3.55790        13.64971         0.40318
C           2.91677        15.11325        -0.25784
C           3.96597        15.85494        -0.62993
O           3.99962        17.08220        -1.20936
C           5.39732        17.20062        -1.31312
N           6.18311        16.19963        -0.86709
C           5.22266        15.35147        -0.42635
H           0.09236        -7.41862         3.52461
H           1.46009       -11.29846         0.70779
H           4.36540        -8.12245        -1.01078
H           9.14487        -4.55443        -3.12257
H          13.60224        -3.51030        -2.01733
H          13.32605         1.21641        -0.47529
H          12.85903         7.33211         0.94569
H          12.01212         9.87426         0.78264
H           7.92881        14.67447         0.97855
H           1.86129        15.32807        -0.33017
H           5.72961        18.12793        -1.76303


--Link1--
%nproc=1
%mem=1GB
%Chk=2.chk
%NoSave
# Geom=AllCheck ZINDO(NStates=15,Singlets)
