%nproc=1
%mem=1GB
%Chk=20.chk
#T PM6 OPT

c(s1)cc(c12)[nH]cc2~c(s1)c(S(=O)(=O)C=C2)c2c1_0_13

0  1
C           3.49319         0.39168        -3.17112
S           2.40232         1.51248        -2.45006
C           3.61378         2.20987        -1.41878
C           4.79562         1.56461        -1.65378
S           6.38742         1.64190        -1.02291
O           6.28124         1.23804         0.35695
O           6.93071         2.90907        -1.46980
C           6.95957         0.32307        -2.03117
C           5.96521        -0.14081        -2.81638
C           4.73204         0.53946        -2.62239
C           3.34624         3.32215        -0.46253
C           2.09342         3.96708        -0.22513
S           0.44617         3.89585        -0.73604
C           0.03952         5.26004         0.23473
C           1.11883         5.72122         0.97369
C           2.28639         4.96132         0.68699
N           3.60536         4.95243         1.06606
H           4.00841         5.59518         1.73733
C           4.24517         3.96287         0.36289
C          -1.30341         5.80497         0.20401
S          -1.57896         7.50028         0.44077
C          -3.29549         7.38869         0.26291
C          -3.61481         6.08002         0.04714
S          -5.06932         5.21218        -0.21927
O          -5.61482         5.72562        -1.45437
O          -5.76429         5.21399         1.04899
C          -4.23973         3.69779        -0.47674
C          -2.91007         3.85584        -0.32936
C          -2.51289         5.19450        -0.02776
C          -4.22101         8.55517         0.34294
C          -3.85951         9.92315         0.53763
S          -2.45806        10.91652         0.72072
C          -3.44006        12.28327         1.10869
C          -4.78963        12.03205         0.91352
C          -5.00279        10.66088         0.61443
N          -6.07440         9.83050         0.41099
H          -7.03984        10.13767         0.41454
C          -5.59798         8.55300         0.26340
C          -2.82606        13.49791         1.61603
S          -3.79239        14.86726         2.03124
C          -1.47990        13.70838         1.87154
C          -1.28527        14.93697         2.55015
C          -2.42723        15.65360         2.74933
N          -0.23433        15.61321         3.11185
H           0.72303        15.28188         3.10096
C          -0.72815        16.74603         3.70386
C          -2.09199        16.81727         3.50946
C          -3.02484        17.86858         4.00546
S          -4.74068        17.84067         3.74042
C          -2.72403        18.98851         4.72972
S          -1.29880        19.69635         5.36576
O          -0.50409        20.08250         4.22038
O          -0.84987        18.80918         6.41372
C          -2.15864        21.07478         6.03085
C          -3.48099        20.97490         5.78212
C          -3.82864        19.80659         5.04987
C          -5.01354        19.31661         4.58749
H           3.14860        -0.29873        -3.92853
H           7.97609        -0.02414        -1.97844
H           6.08129        -0.95787        -3.51700
H           1.08298         6.55770         1.66072
H           5.30579         3.82318         0.51961
H          -4.76781         2.79539        -0.72760
H          -2.21399         3.03888        -0.45957
H          -5.58192        12.75693         1.05098
H          -6.31334         7.75481         0.12483
H          -0.68901        13.00124         1.65649
H          -0.03671        17.39271         4.22503
H          -1.64139        21.85952         6.55379
H          -4.21061        21.71018         6.09668
H          -6.01297        19.71841         4.68156


--Link1--
%nproc=1
%mem=1GB
%Chk=20.chk
%NoSave
# Geom=AllCheck ZINDO(NStates=15,Singlets)
