%nproc=1
%mem=1GB
%Chk=21.chk
#T PM6 OPT

c(s1)cc(C(F)(F)(F))c1~c(s1)c(SC=N2)c2c1_0_1

0  1
C          -4.02867         1.14561         3.52059
S          -3.68874        -0.50916         3.20646
C          -2.86473         1.82791         3.66464
S          -2.45749         3.55211         3.99020
C          -0.77240         2.94910         3.89391
N          -0.50747         1.65526         3.66006
C          -1.72383         1.02932         3.53052
C          -1.96788        -0.29199         3.25477
C          -1.03562        -1.38155         3.05712
S          -1.34811        -2.73758         2.07039
C           0.21885        -1.49014         3.60394
C           0.94938        -2.68376         3.22689
C           2.30601        -2.89533         3.81933
F           2.73963        -1.79414         4.49398
F           2.32397        -3.92387         4.70010
F           3.27161        -3.11051         2.91270
C           0.19723        -3.49610         2.37022
C           0.46794        -4.79802         1.75171
S          -0.79583        -5.96826         1.44494
C           1.63988        -5.32226         1.27119
S           3.35570        -4.77257         1.04599
C           3.66151        -6.40954         0.49370
N           2.65598        -7.26767         0.34140
C           1.51895        -6.63427         0.78884
C           0.25702        -7.15820         0.77785
C          -0.15722        -8.46904         0.31627
S          -1.76682        -9.01133         0.21573
C           0.68095        -9.46647        -0.11237
C           0.03736       -10.69999        -0.47871
C           0.90852       -11.82364        -0.90881
F           2.22470       -11.60962        -0.63148
F           0.58546       -12.98208        -0.28924
F           0.85602       -11.96574        -2.25470
C          -1.35283       -10.61867        -0.37147
C          -2.45168       -11.57990        -0.63687
S          -3.89895       -11.45719         0.35050
C          -4.74917       -12.65501        -0.50208
C          -3.95830       -13.18942        -1.46584
C          -2.62714       -12.63174        -1.54819
C          -1.72598       -13.21489        -2.58638
F          -0.51399       -13.53633        -2.11472
F          -2.20872       -14.40260        -3.05760
F          -1.58604       -12.40575        -3.66079
C          -6.12170       -13.02547        -0.19318
S          -7.18195       -13.64793        -1.42549
C          -8.49739       -13.84552        -0.33790
C          -8.12971       -13.45373         0.90221
S          -8.94921       -13.38900         2.50401
C          -7.36721       -12.74822         3.05386
N          -6.34730       -12.59370         2.20258
C          -6.80002       -12.99146         0.96978
H          -5.03442         1.53828         3.58271
H           0.01766         3.67709         4.03241
H           0.62996        -0.74323         4.27804
H           4.68566        -6.66938         0.25897
H           1.76062        -9.35984        -0.15846
H          -4.28487       -13.99507        -2.12544
H          -9.46300       -14.23557        -0.64752
H          -7.26958       -12.49368         4.10108


--Link1--
%nproc=1
%mem=1GB
%Chk=21.chk
%NoSave
# Geom=AllCheck ZINDO(NStates=15,Singlets)
