%nproc=1
%mem=1GB
%Chk=22.chk
#T PM6 OPT

c(s1)c(SC(C#N)=C2)c2c1~c(s1)c(OC=N2)c2c1_0_9

0  1
C           7.40763        -0.12263        -1.15329
S           6.15322        -1.11769        -0.49759
C           8.29009        -0.95076        -1.72149
O           9.44904        -0.66592        -2.36985
C           9.81752        -1.98535        -2.68131
N           9.02037        -3.00291        -2.29774
C           8.04232        -2.29754        -1.67554
C           6.87899        -2.62939        -1.04026
C           6.27035        -3.91396        -0.78894
S           4.55738        -4.11654        -0.66247
C           4.63373        -5.81838        -0.37492
C           5.94969        -6.21992        -0.38397
S           6.73464        -7.83956        -0.13133
C           8.25589        -7.00507        -0.35993
C           9.50084        -7.71196        -0.29859
N          10.51633        -8.27258        -0.24723
C           8.16106        -5.62736        -0.59160
C           6.82028        -5.14533        -0.61965
C           3.45614        -6.62322        -0.17640
S           3.26802        -8.28188        -0.64528
C           2.27230        -6.25963         0.35065
O           1.86153        -5.06775         0.86756
C           0.55662        -5.44679         1.22065
N           0.15238        -6.70971         0.99408
C           1.27661        -7.20228         0.42198
C           1.62387        -8.43277        -0.05541
C           0.87435        -9.66881        -0.10853
S          -0.84184        -9.71084        -0.25285
C          -0.98285       -11.44449        -0.18208
C           0.29220       -11.96146        -0.02758
S           0.92183       -13.65838         0.18937
C           2.51982       -12.96798         0.10440
C           3.67620       -13.81358         0.11825
N           4.60703       -14.50669         0.11655
C           2.56885       -11.57320         0.03241
C           1.28153       -10.96262        -0.05089
C          -2.25891       -12.16810        -0.28346
S          -2.39134       -13.90226        -0.26645
C          -3.53652       -11.65350        -0.41720
S          -4.18517        -9.94888        -0.45144
C          -5.73812       -10.65355        -0.80336
C          -6.87383        -9.81910        -1.08163
N          -7.77521        -9.13940        -1.31727
C          -5.77903       -12.04747        -0.78688
C          -4.50798       -12.66019        -0.55940
C          -4.10344       -13.95419        -0.45600
C          -4.85307       -15.19490        -0.48032
S          -6.60823       -15.23585        -0.64164
C          -6.73068       -16.94842        -0.59165
C          -5.48491       -17.40640        -0.44651
O          -5.04842       -18.68743        -0.35154
C          -3.67909       -18.40584        -0.22271
N          -3.26198       -17.12474        -0.23131
C          -4.45703       -16.50087        -0.37905
H           7.42611         0.95579        -1.08703
H          10.75131        -2.06813        -3.22432
H           9.04182        -5.01058        -0.73562
H          -0.03361        -4.65487         1.66497
H           3.51367       -11.04152         0.01449
H          -6.70899       -12.57538        -0.96225
H          -7.66105       -17.49175        -0.66555
H          -3.05557       -19.28519        -0.12492


--Link1--
%nproc=1
%mem=1GB
%Chk=22.chk
%NoSave
# Geom=AllCheck ZINDO(NStates=15,Singlets)
