%nproc=1
%mem=1GB
%Chk=24.chk
#T PM6 OPT

c(s1)c(C(=O)NC2(=O))c2c1~C(S1)=CC2=C1C=C(C2=O)_1_7

0  1
C          -0.21494         1.66252        -0.45761
S          -0.06824         0.04069        -1.00776
C          -1.19499         1.73308         0.48444
C          -1.78196         2.76089         1.29896
O          -1.49715         3.94332         1.32169
N          -2.73475         2.10231         2.03963
C          -2.81862         0.75059         1.78351
O          -3.57675        -0.04644         2.30684
C          -1.82315         0.49987         0.76937
C          -1.32566        -0.55906         0.04993
C          -1.69672        -1.95911         0.05910
S          -0.52083        -3.20364        -0.29104
C          -2.94358        -2.52115         0.33020
C          -2.89769        -3.92936         0.23062
C          -1.66226        -4.39891        -0.09236
C          -1.62954        -5.79725        -0.18607
C          -2.87146        -6.26321         0.07886
C          -3.76903        -5.06767         0.36612
O          -4.95452        -5.07416         0.64166
C          -3.31857        -7.62518         0.08862
C          -4.56051        -8.09953         0.34769
C          -4.52357        -9.49493         0.21275
S          -5.66407       -10.69712         0.38241
C          -4.50795       -11.91592        -0.07389
C          -3.24874       -11.35239        -0.28535
C          -3.28989        -9.95257        -0.12850
C          -2.41866        -8.81332        -0.22581
O          -1.23302        -8.80317        -0.50054
C          -4.87927       -13.31053        -0.16649
S          -3.73484       -14.56153         0.20076
C          -6.06566       -13.89859        -0.51794
C          -7.37994       -13.48925        -0.95682
O          -7.79942       -12.36967        -1.18054
N          -8.07901       -14.66182        -1.11879
C          -7.34084       -15.79338        -0.88497
O          -7.70882       -16.94916        -1.00272
C          -6.04041       -15.31500        -0.48290
C          -4.83394       -15.87045        -0.12950
C          -4.41469       -17.22168        -0.00469
C          -5.21603       -18.25609         0.33991
C          -4.43755       -19.42337         0.31383
S          -4.77422       -21.02965         0.60140
C          -3.12640       -21.48190         0.23601
C          -2.36193       -20.35764        -0.07462
C          -3.14477       -19.18314        -0.03334
C          -3.01339       -17.76552        -0.26406
O          -2.01755       -17.16314        -0.61745
C          -2.70115       -22.86486         0.27896
S          -3.79691       -24.17150        -0.10325
C          -1.47356       -23.40415         0.57326
C          -0.15919       -22.95409         0.96064
O           0.22653       -21.81047         1.12729
N           0.58465       -24.10601         1.10190
C          -0.11160       -25.26352         0.84670
O           0.29391       -26.40828         0.89275
C          -1.43454       -24.81435         0.50887
C          -2.61481       -25.39413         0.15571
H           0.41216         2.45139        -0.85142
H          -3.31861         2.57231         2.71105
H          -3.83476        -1.95586         0.57558
H          -0.74978        -6.37624        -0.43310
H          -5.44310        -7.52721         0.59979
H          -2.36236       -11.91305        -0.55890
H          -9.03032       -14.68261        -1.44446
H          -6.26726       -18.23098         0.58647
H          -1.31039       -20.38068        -0.33507
H           1.55508       -24.10151         1.36624
H          -2.85233       -26.44261         0.03351


--Link1--
%nproc=1
%mem=1GB
%Chk=24.chk
%NoSave
# Geom=AllCheck ZINDO(NStates=15,Singlets)
