%nproc=1
%mem=1GB
%Chk=26.chk
#T PM6 OPT

c1oc(c2)c(c1)oc2~c(s1)cc(c12)Cc(c2s3)cc3_3_2

0  1
C           7.44233         0.77801        -0.23168
S           6.46803         0.84101        -1.66370
C           7.55937         2.01114         0.39548
C           6.84015         2.99671        -0.31483
C           6.22022         2.46828        -1.43087
C           6.55858         4.48413        -0.17650
C           5.67406         4.67902        -1.39608
C           5.50939         3.49723        -2.09018
S           4.55684         3.61116        -3.44149
C           4.96842         5.74134        -2.00682
C           4.30125         5.30556        -3.15014
C           3.47940         6.10198        -4.03006
O           3.25178         7.45231        -3.78422
C           2.44817         7.87302        -4.79463
C           1.81471         9.03479        -5.23144
C           2.19458         6.85335        -5.61589
C           2.82208         5.69047        -5.18606
O           1.39498         7.26602        -6.63009
C           1.16927         8.60916        -6.38736
C           0.35945         9.40523        -7.26797
O           0.12832        10.74752        -7.02137
C          -0.66220        11.16130        -8.04107
C          -1.30365        12.32209        -8.46533
C          -0.89740        10.14838        -8.87429
C          -0.27414         8.98205        -8.43070
O          -1.67889        10.57198        -9.89949
C          -1.94845        11.90639        -9.62570
C          -2.81072        12.68387       -10.47765
S          -3.72255        14.01572        -9.84117
C          -3.06484        12.47196       -11.83072
C          -4.01811        13.39706       -12.31491
C          -4.44861        14.24408       -11.31352
C          -4.74550        13.67297       -13.62105
C          -5.68766        14.76744       -13.14460
C          -5.46987        15.07824       -11.81880
S          -6.47038        16.24538       -11.19653
C          -6.75842        15.51901       -13.67687
C          -7.30688        16.36939       -12.71479
C          -8.43326        17.26151       -12.86279
S          -9.73651        16.86557       -13.94417
C          -8.64915        18.48182       -12.22088
C          -9.84598        19.08707       -12.66365
C         -10.49201        18.29926       -13.59308
C         -10.59046        20.39126       -12.42735
C         -11.72970        20.20027       -13.41487
C         -11.64339        18.97786       -14.04937
S         -12.83472        18.68094       -15.16209
C         -12.82968        20.94971       -13.89043
C         -13.52677        20.24648       -14.87181
C         -14.67353        20.71056       -15.61455
O         -15.18745        21.98629       -15.41419
C         -16.22216        22.09755       -16.28449
C         -17.17803        23.03717       -16.67782
C         -16.35498        20.96095       -16.97305
C         -15.39401        20.02831       -16.59209
O         -17.39158        21.06924       -17.84514
C         -17.87305        22.33739       -17.64390
H           7.87474        -0.16571         0.07077
H           8.12636         2.16950         1.30381
H           6.01964         4.70401         0.74872
H           7.47758         5.07155        -0.25217
H           4.93594         6.76366        -1.64891
H           1.81275        10.02529        -4.80258
H           2.80648         4.70904        -5.63470
H          -1.31295        13.29973        -8.00970
H          -0.27055         7.99351        -8.86291
H          -2.59921        11.68291       -12.40922
H          -4.05927        14.04478       -14.38751
H          -5.29347        12.79432       -13.97032
H          -7.12770        15.44091       -14.69228
H          -7.96014        18.91701       -11.50748
H         -10.95981        20.46012       -11.40058
H          -9.97421        21.25576       -12.68802
H         -13.09832        21.94888       -13.56825
H         -17.34364        24.04451       -16.33080
H         -15.23502        19.02936       -16.96553
H         -18.71769        22.59323       -18.27006


--Link1--
%nproc=1
%mem=1GB
%Chk=26.chk
%NoSave
# Geom=AllCheck ZINDO(NStates=15,Singlets)
