%nproc=1
%mem=1GB
%Chk=28.chk
#T PM6 OPT

c(s1)c(OC(=S)O2)c2c1~c(s1)c(CCC2)c2c1_3_1

0  1
C           3.05842        -3.68797         1.47564
S           1.75094        -4.72480         1.08045
C           2.68209        -2.38038         1.35740
C           3.36682        -1.07806         1.55513
C           2.18185        -0.07458         1.57054
C           0.98737        -0.77017         0.85038
C           1.32943        -2.21766         0.95049
C           0.66505        -3.40949         0.75580
C          -0.69524        -3.64057         0.33050
S          -1.61320        -5.04970         0.80822
C          -1.51077        -2.88538        -0.46206
O          -1.36057        -1.72213        -1.11939
C          -2.58118        -1.54612        -1.75760
S          -2.94094        -0.24578        -2.69489
O          -3.46318        -2.58783        -1.50419
C          -2.76764        -3.40421        -0.69380
C          -3.03518        -4.60373        -0.09520
C          -4.22802        -5.41862        -0.11234
S          -5.79546        -4.71546        -0.30797
C          -4.36161        -6.78270         0.01851
C          -3.42672        -7.93268         0.18810
C          -4.32591        -9.16128        -0.12122
C          -5.78887        -8.71515         0.13207
C          -5.71234        -7.23381        -0.01722
C          -6.62791        -6.22408        -0.19019
C          -8.06382        -6.30400        -0.27063
S          -8.98331        -7.54169         0.54592
C          -8.95601        -5.50716        -0.93068
O          -8.84167        -4.43100        -1.72657
C         -10.15346        -4.14148        -2.07850
S         -10.58641        -2.89682        -3.05859
O         -11.05771        -5.02887        -1.51086
C         -10.27926        -5.86536        -0.80142
C         -10.51868        -6.96677        -0.03517
C         -11.75661        -7.61073         0.30207
S         -13.25698        -6.73965         0.39219
C         -12.02020        -8.91283         0.60547
O         -11.27095       -10.02687         0.67458
C         -12.18481       -11.01554         1.01058
S         -11.78331       -12.59265         1.23245
O         -13.47515       -10.51690         1.14435
C         -13.33718        -9.20561         0.88601
C         -14.19802        -8.14711         0.82083
C         -15.62023        -8.09236         1.04764
S         -16.63090        -6.94980         0.22180
C         -16.39749        -8.87263         1.87401
C         -16.15703        -9.99436         2.82460
C         -17.49734       -10.07760         3.61375
C         -18.58410        -9.40251         2.73261
C         -17.77809        -8.54020         1.83293
C         -18.06254        -7.51237         0.97930
H           4.01742        -4.09441         1.76589
H           4.03902        -0.86910         0.71629
H           3.93397        -1.03616         2.48975
H           2.44586         0.88153         1.10704
H           1.90284         0.13338         2.61187
H           0.04209        -0.52374         1.34193
H           0.94797        -0.45672        -0.19765
H          -3.06360        -7.98004         1.21989
H          -2.57747        -7.89631        -0.49962
H          -4.21396        -9.43041        -1.17981
H          -4.05111       -10.04001         0.47073
H          -6.46710        -9.18318        -0.58730
H          -6.09657        -8.98048         1.14919
H         -15.31893        -9.80516         3.50136
H         -15.98340       -10.92748         2.27928
H         -17.76020       -11.10728         3.87641
H         -17.39733        -9.51578         4.55172
H         -19.13035       -10.15268         2.15147
H         -19.29102        -8.83263         3.34245
H         -19.01832        -7.06085         0.75303


--Link1--
%nproc=1
%mem=1GB
%Chk=28.chk
%NoSave
# Geom=AllCheck ZINDO(NStates=15,Singlets)
