%nproc=1
%mem=1GB
%Chk=30.chk
#T PM6 OPT

c(s1)c(SC=CS2)c2c1~c(cn1)ccc1C=C_1_3

0  1
C           1.05837         1.24009        -9.19790
S           0.47390         2.81507        -8.95052
C           1.13449         0.53067        -8.02571
S           1.73145        -1.12020        -7.96886
C           2.45048        -1.07704        -6.39997
C           2.00240        -0.40063        -5.33406
S           0.60690         0.61830        -5.26462
C           0.67274         1.28066        -6.90414
C           0.25594         2.56251        -7.24760
C          -0.22735         3.62409        -6.41894
C          -1.10505         4.53303        -6.87073
C          -1.54533         5.65425        -6.06063
N          -0.81023         6.77820        -6.17108
C          -1.21588         7.84310        -5.44582
C          -2.34032         7.86424        -4.61793
C          -3.07662         6.67319        -4.55001
C          -2.67513         5.55282        -5.26803
C          -2.72951         9.05893        -3.86271
C          -2.46685        10.34940        -4.32705
N          -2.79899        11.48502        -3.68004
C          -3.39086         8.97053        -2.63063
C          -3.75702        10.12078        -1.94553
C          -3.44193        11.35158        -2.50322
C          -3.82757        12.56464        -1.79961
C          -3.53370        13.80749        -2.23169
C          -3.95567        14.96507        -1.52220
S          -4.29817        16.36560        -2.45158
C          -4.16233        15.23477        -0.17824
S          -3.82193        14.09144         1.14681
C          -5.25944        14.38839         2.05748
C          -5.76901        15.60561         2.28678
S          -5.08776        17.09387         1.70790
C          -4.67569        16.55239         0.06450
C          -4.75767        17.32074        -1.09147
C          -5.17332        18.72110        -1.34244
C          -4.64987        19.47804        -2.39574
N          -4.99619        20.75554        -2.69102
C          -6.13231        19.37141        -0.56155
C          -6.49955        20.69215        -0.82817
C          -5.90006        21.35173        -1.88907
C          -6.24978        22.70904        -2.28798
C          -6.64398        23.69814        -1.46458
C          -6.98482        24.99053        -1.97334
S          -6.17684        25.63096        -3.36790
C          -7.91598        25.91166        -1.50284
S          -8.90709        25.67301        -0.05655
C         -10.34474        26.48061        -0.57480
C         -10.42209        27.55327        -1.37304
S          -9.10323        28.41832        -2.07343
C          -8.00569        27.07192        -2.32652
C          -7.11542        27.04325        -3.37041
H           1.33462         0.92019       -10.19232
H           3.34111        -1.68776        -6.28130
H           2.54728        -0.50744        -4.40029
H           0.14634         3.68894        -5.39875
H          -1.51664         4.51956        -7.87318
H          -0.56988         8.71157        -5.55363
H          -3.98002         6.60389        -3.94940
H          -3.24420         4.63158        -5.21611
H          -1.97179        10.52711        -5.27843
H          -3.62339         8.00942        -2.17952
H          -4.27363        10.04625        -0.99500
H          -4.39242        12.39952        -0.89534
H          -3.00875        13.93553        -3.17564
H          -5.75118        13.51721         2.48206
H          -6.66027        15.68803         2.90160
H          -3.90234        19.08038        -3.07786
H          -6.63188        18.86995         0.25938
H          -7.25669        21.17468        -0.22057
H          -6.14371        22.86921        -3.35767
H          -6.74220        23.52730        -0.39748
H         -11.27307        26.07599        -0.18079
H         -11.40701        27.95553        -1.59293
H          -6.96149        27.78160        -4.14331


--Link1--
%nproc=1
%mem=1GB
%Chk=30.chk
%NoSave
# Geom=AllCheck ZINDO(NStates=15,Singlets)
