%nproc=1
%mem=1GB
%Chk=32.chk
#T PM6 OPT

c(s1)c(O)c(C(=O)O)c1~C(C1=C)=C(C=CC=C2)C2=C1_2_1

0  1
C          -0.97860         2.55871         2.97325
C           0.30890         3.15215         2.66033
C           1.03632         3.65916         3.66215
C          -1.49949         2.14300         1.81968
C          -2.78758         1.51527         1.60835
C          -3.14540         1.18032         0.35645
C          -2.25462         1.42018        -0.75778
C          -1.04359         1.98492        -0.60092
C          -0.55811         2.43699         0.70301
C           0.56510         3.07599         1.18285
C           1.71281         3.56241         0.39274
S           3.12101         4.31917         1.11606
C           1.96339         3.59137        -0.97115
O           1.03687         3.18210        -1.85007
C           3.24134         4.08609        -1.43475
C           3.62003         4.03060        -2.83501
O           4.63477         4.43907        -3.33899
O           2.70254         3.42437        -3.64167
C           3.98386         4.61341        -0.36505
C           5.27333         5.27853        -0.32262
C           6.64367         4.73161        -0.12733
C           6.91353         3.44009         0.10767
C           5.45582         6.61975        -0.41233
C           4.50475         7.72193        -0.47365
C           4.96734         8.98619        -0.58086
C           6.39036         9.28725        -0.69508
C           7.32884         8.32575        -0.60946
C           6.91979         6.94587        -0.37842
C           7.65840         5.82860        -0.16855
C           9.11028         5.81718        -0.03971
S          10.04353         4.55313        -0.69625
C          10.00697         6.67838         0.56751
O           9.55757         7.73487         1.28840
C          11.42816         6.37161         0.38292
C          12.45459         7.30868         0.86169
O          13.55096         7.07690         1.33072
O          12.04766         8.60897         0.83378
C          11.61284         5.13401        -0.26637
C          12.83898         4.32859        -0.62358
S          14.41037         5.04521        -0.38360
C          15.31875         3.68512        -0.82759
C          14.44939         2.65978        -1.12746
O          14.91002         1.42220        -1.42180
C          13.03647         3.04202        -1.19524
C          12.03505         2.14737        -1.81106
O          10.85731         2.36389        -2.04677
O          12.49948         0.96323        -2.26781
C          16.74877         3.74595        -0.87796
C          17.77860         3.40939         0.12300
C          17.61309         3.00037         1.38507
C          17.44040         4.11339        -1.98609
C          17.01950         4.57988        -3.29446
C          17.95991         4.80257        -4.23854
C          19.38972         4.60305        -3.98753
C          19.85571         4.22996        -2.77869
C          18.89246         3.98475        -1.72957
C          19.09542         3.58343        -0.46956
H          -1.43445         2.48511         3.94735
H           0.66721         3.62388         4.68491
H           2.00081         4.12510         3.54037
H          -3.44754         1.33144         2.44624
H          -4.09729         0.70897         0.13816
H          -2.57367         1.11111        -1.74946
H          -0.48077         2.03807        -1.50401
H           1.37313         3.17793        -2.76600
H           3.10161         3.42439        -4.52546
H           6.13801         2.68835         0.18057
H           7.92577         3.08300         0.25231
H           3.44256         7.53307        -0.37573
H           4.28804         9.83405        -0.59083
H           6.67867        10.32105        -0.86712
H           8.37569         8.57141        -0.73712
H          10.29788         8.31893         1.54141
H          12.86245         9.08067         1.10737
H          15.86193         1.33976        -1.24009
H          11.70400         0.58724        -2.69511
H          16.63397         2.86312         1.82793
H          18.47323         2.80315         2.02117
H          15.97196         4.77029        -3.49383
H          17.68060         5.15729        -5.22641
H          20.07400         4.77592        -4.81380
H          20.91398         4.08660        -2.59302
H          20.04262         3.39067         0.00769


--Link1--
%nproc=1
%mem=1GB
%Chk=32.chk
%NoSave
# Geom=AllCheck ZINDO(NStates=15,Singlets)
