%nproc=1
%mem=1GB
%Chk=33.chk
#T PM6 OPT

c(s1)c(SN=N2)c2c1~c(s1)c(OC=N2)c2c1_0_3

0  1
C           1.51097         1.58202         1.45102
S           1.02224         0.00869         0.95754
C           2.64359        -0.60360         0.90937
C           3.50339         0.39603         1.25613
S           5.27894         0.62601         1.47762
N           4.93460         2.27376         1.92868
N           3.63888         2.65871         1.93284
C           2.86357         1.60125         1.55538
C           2.97448        -1.95465         0.55533
S           1.89081        -3.29614         0.86932
C           2.94456        -4.48740         0.18355
C           4.03785        -3.83323        -0.23366
O           5.15471        -4.28366        -0.86755
C           5.81406        -3.05099        -0.99855
N           5.22156        -1.93408        -0.53531
C           4.08273        -2.47563        -0.04366
C           2.65253        -5.87945         0.09879
S           1.05934        -6.54726        -0.04398
C           3.50033        -6.91799         0.11287
O           4.85595        -6.95916         0.23078
C           5.01292        -8.35343         0.18524
N           3.92297        -9.13563         0.07231
C           2.96811        -8.17820         0.02056
C           1.60867        -8.21069        -0.07606
C           0.70201        -9.31815        -0.18996
S          -0.90604        -9.31235         0.43203
C           0.93978       -10.52115        -0.77923
S           2.29881       -11.32431        -1.65494
N           1.27226       -12.71391        -1.81898
N           0.03053       -12.63674        -1.29368
C          -0.14812       -11.40155        -0.72610
C          -1.25853       -10.92638        -0.08875
C          -2.52858       -11.54562         0.16016
S          -3.55732       -11.19717         1.51527
C          -3.16141       -12.48736        -0.55766
O          -2.81692       -13.09915        -1.72320
C          -3.94461       -13.92509        -1.85179
N          -4.91671       -13.86223        -0.92297
C          -4.37568       -12.93315        -0.10168
C          -4.79657       -12.34787         1.05524
C          -5.98675       -12.55448         1.83247
S          -6.72130       -11.32883         2.81497
C          -6.72054       -13.69973         1.93595
S          -6.67342       -15.39044         1.30545
N          -8.11565       -15.69969         2.23297
N          -8.61564       -14.67751         2.96224
C          -7.82642       -13.57898         2.78112
C          -7.98836       -12.35991         3.35410
H           0.79868         2.37400         1.63156
H           6.78043        -3.11118        -1.48340
H           6.04037        -8.68981         0.24808
H          -3.93280       -14.56542        -2.72523
H          -8.75197       -12.02206         4.03972


--Link1--
%nproc=1
%mem=1GB
%Chk=33.chk
%NoSave
# Geom=AllCheck ZINDO(NStates=15,Singlets)
