%nproc=1
%mem=1GB
%Chk=34.chk
#T PM6 OPT

c(s1)c(NC=C2)c2c1~c(s1)c(N(=O)=O)c(N)c1_0_3

0  1
C          -7.19869         1.52702         1.73676
S          -5.51812         1.26400         1.43775
C          -5.19878         2.91981         0.95975
C          -6.38672         3.57923         1.03532
N          -6.65458         4.89426         0.76383
H          -6.00239         5.60394         0.45133
C          -8.01567         4.97428         1.03794
C          -8.53149         3.73485         1.46386
C          -7.45597         2.81736         1.45751
C          -3.87363         3.42253         0.62498
S          -3.62268         5.06655         0.19690
C          -1.90683         4.97813         0.25461
C          -1.54050         3.64190         0.39035
N          -0.18405         3.17842         0.39793
O           0.53929         3.57994         1.31856
O           0.13850         2.39395        -0.50227
C          -2.65833         2.75058         0.57105
N          -2.53236         1.40885         0.72886
C          -1.10607         6.19713         0.09018
S           0.44090         6.12533        -0.66277
C          -1.38857         7.52591         0.40470
N          -2.59235         7.95863         1.04919
O          -2.80871         7.52536         2.18762
O          -3.30374         8.75611         0.42193
C          -0.34185         8.44424         0.03618
N          -0.42470         9.80059         0.17578
C           0.78517         7.79029        -0.43720
C           2.09514         8.32455        -0.75037
S           3.15941         7.65855        -1.94207
C           2.73077         9.38806        -0.20140
N           2.26842        10.18424         0.81409
C           3.26250        11.14152         0.90226
C           4.32055        10.85912         0.01532
C           3.97492         9.68881        -0.73371
C           4.44057         8.82610        -1.67951
C           5.70962         8.73108        -2.38823
S           6.32296         7.19444        -2.88271
C           6.62030         9.71089        -2.74750
N           6.37914        11.10288        -2.53665
O           5.44086        11.61607        -3.13699
O           7.18613        11.68851        -1.78708
C           7.84843         9.19377        -3.30687
N           8.91104         9.98398        -3.65142
C           7.83689         7.81123        -3.43007
C           8.85756         6.90261        -3.92785
S           9.03936         5.25298        -3.35674
C           9.83047         7.10447        -4.85493
N          10.08287         8.22712        -5.59571
C          11.19992         7.83950        -6.33156
C          11.57278         6.51016        -6.04803
C          10.66605         6.02888        -5.07497
C          10.40829         4.91534        -4.36453
H          -7.84746         0.73806         2.08822
H          -8.51786         5.92483         0.91142
H          -9.55987         3.54822         1.74211
H          -1.66599         0.89096         0.58839
H          -3.35197         0.80181         0.76170
H          -1.33317        10.25524         0.29746
H           0.16940        10.39197        -0.41189
H           1.38334        10.09528         1.30699
H           3.14775        11.95665         1.60708
H           5.20866        11.47150        -0.04901
H           8.91081        10.97151        -3.38036
H           9.85147         9.60725        -3.51921
H           9.58007         9.10884        -5.56000
H          11.64872         8.54811        -7.01621
H          12.40193         5.98195        -6.50127
H          10.90325         3.95441        -4.35772


--Link1--
%nproc=1
%mem=1GB
%Chk=34.chk
%NoSave
# Geom=AllCheck ZINDO(NStates=15,Singlets)
