%nproc=1
%mem=1GB
%Chk=35.chk
#T PM6 OPT

c(s1)c(SN=N2)c2c1~c(s1)c(F)c(F)c1_2_3

0  1
C          10.20649        -6.61688         2.87225
S           8.98285        -7.25103         1.84426
C           7.73500        -6.24759         2.51458
C           8.28284        -5.45951         3.48611
S           7.74503        -4.19726         4.66100
N           9.39217        -4.11807         5.22049
N          10.28856        -4.93938         4.63062
C           9.65145        -5.67226         3.67180
C           6.36185        -6.28101         2.07425
S           5.63944        -7.72480         1.45706
C           5.43243        -5.26361         2.05102
F           5.67784        -4.03883         2.42904
C           4.17645        -5.65568         1.54961
F           3.17632        -4.81984         1.44444
C           4.11607        -6.97668         1.16831
C           2.99610        -7.71148         0.62087
S           1.37116        -7.30811         1.02280
C           3.00101        -8.78624        -0.24048
F           4.08502        -9.31880        -0.73879
C           1.71281        -9.26113        -0.56034
F           1.52622       -10.25895        -1.38222
C           0.69299        -8.56486         0.04975
C          -0.73539        -8.76262        -0.04250
S          -1.89120        -7.48223         0.10892
C          -1.40802        -9.92739        -0.26130
S          -1.01182       -11.67458        -0.51179
N          -2.71687       -11.96867        -0.65216
N          -3.54131       -10.90967        -0.52153
C          -2.79956        -9.77858        -0.29603
C          -3.26265        -8.50914        -0.10988
C          -4.61747        -8.01104        -0.07520
S          -5.91918        -8.99075         0.47824
C          -5.09488        -6.77050        -0.42883
F          -4.34433        -5.79963        -0.88093
C          -6.49104        -6.64190        -0.29006
F          -7.12819        -5.54473        -0.60059
C          -7.10791        -7.78594         0.17153
C          -8.50873        -8.01232         0.41810
S          -9.60373        -6.75713         0.89626
C          -9.19930        -9.18639         0.32555
S          -8.87250       -10.90944        -0.11205
N         -10.55678       -11.22828         0.18982
N         -11.32883       -10.18583         0.56972
C         -10.55441        -9.06427         0.63844
C         -10.96171        -7.81286         0.97006
H          11.22886        -6.96409         2.83108
H         -11.94779        -7.46418         1.24081


--Link1--
%nproc=1
%mem=1GB
%Chk=35.chk
%NoSave
# Geom=AllCheck ZINDO(NStates=15,Singlets)
