%nproc=1
%mem=1GB
%Chk=36.chk
#T PM6 OPT

c(s1)cc(N)c1~c(s1)c(SCS2)c2c1_2_2

0  1
C          -9.15324         2.44899        -1.16022
S          -7.63407         1.72803        -1.48877
C          -9.85159         1.70832        -0.24734
S         -11.43658         2.03750         0.41108
C         -11.51981         0.55358         1.47008
S          -9.98797        -0.42744         1.38984
C          -9.16137         0.55847         0.19079
C          -7.91363         0.41105        -0.39058
C          -6.90923        -0.62309        -0.22356
S          -7.33342        -2.23975         0.12875
C          -5.53523        -0.50868        -0.34093
C          -4.85284        -1.74822        -0.15834
N          -3.50566        -1.83906        -0.26092
C          -5.70808        -2.80825         0.09627
C          -5.41439        -4.21969         0.31047
S          -6.54269        -5.42333        -0.18061
C          -5.58795        -6.72971         0.38568
C          -4.39468        -6.25309         0.89613
C          -4.29692        -4.82886         0.85867
N          -3.20874        -4.17958         1.33689
C          -6.05176        -8.10157         0.26836
S          -7.73696        -8.46849         0.31435
C          -5.34447        -9.27333         0.10391
S          -3.60602        -9.50987        -0.01897
C          -3.64699       -11.30176        -0.31645
S          -5.34061       -11.95816        -0.27961
C          -6.16819       -10.42515        -0.02353
C          -7.52290       -10.16071         0.07651
C          -8.68107       -11.03967        -0.02930
S          -8.68425       -12.36071        -1.13878
C          -9.90875       -10.99395         0.60718
S         -10.50827        -9.86619         1.82364
C         -12.00339       -10.80235         2.25614
S         -12.38088       -12.05517         0.99379
C         -10.80060       -12.02917         0.21488
C         -10.27462       -12.88858        -0.72673
C         -10.86809       -14.05022        -1.36754
S          -9.91489       -15.39241        -1.88964
C         -12.20685       -14.27805        -1.65329
C         -12.42577       -15.51263        -2.32092
N         -13.64139       -15.93735        -2.72645
C         -11.27370       -16.21957        -2.51160
H          -9.44824         3.36880        -1.64674
H         -12.36009        -0.06832         1.14877
H         -11.68773         0.85842         2.50633
H          -5.03471         0.42641        -0.55857
H          -3.08372        -2.76135        -0.39841
H          -2.96788        -1.10101        -0.70577
H          -3.62055        -6.89181         1.30001
H          -3.28235        -3.18186         1.55151
H          -2.53758        -4.65466         1.93348
H          -3.19411       -11.50923        -1.29032
H          -3.05833       -11.80774         0.45323
H         -11.82031       -11.31400         3.20452
H         -12.85306       -10.12547         2.38298
H         -12.99570       -13.57896        -1.41466
H         -13.75399       -16.75404        -3.31900
H         -14.45786       -15.33904        -2.69434
H         -11.14687       -17.18485        -2.98558


--Link1--
%nproc=1
%mem=1GB
%Chk=36.chk
%NoSave
# Geom=AllCheck ZINDO(NStates=15,Singlets)
