%nproc=1
%mem=1GB
%Chk=38.chk
#T PM6 OPT

c(s1)cc(C=C)c1~c(s1)c(OC)c(OC)c1_2_4

0  1
C          -2.61181        -1.51090        -1.43149
S          -1.44129        -1.99271        -0.33227
C          -2.02396        -1.02651        -2.56354
O          -2.85867        -0.45826        -3.46949
C          -2.28437         0.56204        -4.26406
C          -0.58401        -1.25423        -2.60433
O           0.10068        -0.81179        -3.70586
C           1.50343        -0.82476        -3.62339
C          -0.14184        -2.00951        -1.48792
C           1.13540        -2.66380        -1.08901
S           2.60588        -1.77200        -1.07922
C           3.63037        -3.08946        -0.87271
C           2.87136        -4.17497        -0.49595
C           1.43576        -3.92312        -0.54253
C           0.52865        -4.96255        -0.13831
C          -0.59126        -4.85314         0.58549
C           5.06071        -2.93345        -0.97197
S           6.05739        -4.34647        -1.01324
C           5.84138        -1.76248        -1.05198
O           5.30947        -0.48251        -1.04371
C           6.02669         0.54949        -1.76964
C           7.14365        -2.09685        -0.66806
O           7.84415        -1.11039        -0.05388
C           9.11095        -1.59345        -0.05928
C           7.54098        -3.45588        -0.82877
C           8.89644        -4.24921        -0.69805
S           8.81992        -5.92108        -0.10585
C          10.42107        -6.30299        -0.66692
C          11.03918        -5.11099        -0.77147
C          10.31049        -3.90318        -0.77629
C          11.16769        -2.59914        -0.84743
C          12.40956        -2.39700        -1.25649
C          10.91803        -7.68393        -0.84613
S           9.85758        -8.97080        -0.42128
C          12.07881        -8.22932        -1.41995
O          13.20911        -7.64883        -1.89667
C          13.51741        -6.31503        -1.67389
C          11.97594        -9.68315        -1.61450
O          12.82401       -10.47964        -2.33584
C          14.19799       -10.12236        -2.40341
C          10.84106       -10.23568        -1.03521
C          10.35989       -11.61570        -0.87808
S           9.45512       -12.01252         0.57274
C           9.06538       -13.57181         0.03619
C           9.69116       -13.86636        -1.14716
C          10.47039       -12.76864        -1.65453
C          11.23490       -12.93689        -2.84800
C          10.77048       -12.73161        -4.08631
H          -3.66520        -1.49359        -1.17443
H          -1.55989         1.17481        -3.71695
H          -1.84320         0.12519        -5.16368
H          -3.10000         1.22256        -4.57321
H           1.85761        -1.85006        -3.76974
H           1.98804        -0.20134        -4.38014
H           1.79039        -0.31412        -2.71163
H           3.30365        -5.11385        -0.15933
H           0.83391        -5.97948        -0.37706
H          -1.23124        -5.69878         0.80005
H          -0.92679        -3.92567         1.01876
H           6.07908         1.46349        -1.15100
H           7.04499         0.34446        -2.13240
H           5.41790         0.84200        -2.63682
H           9.38681        -1.59769        -1.08540
H           9.80747        -1.36702         0.83449
H           8.99233        -2.50885         0.41875
H          12.07681        -4.93885        -0.91035
H          11.03612        -1.70837        -0.34064
H          12.78886        -1.42322        -1.08804
H          13.13242        -3.00160        -1.80099
H          14.58908        -6.12370        -1.73865
H          13.05091        -5.72114        -2.47443
H          13.30631        -6.06286        -0.63720
H          14.62017       -10.59539        -3.29493
H          14.44630        -9.07518        -2.54933
H          14.72137       -10.49615        -1.52122
H           8.42034       -14.20903         0.62573
H           9.59481       -14.83109        -1.63177
H          12.23695       -13.34394        -2.72569
H          11.39378       -12.94670        -4.94795
H           9.76911       -12.35497        -4.26391


--Link1--
%nproc=1
%mem=1GB
%Chk=38.chk
%NoSave
# Geom=AllCheck ZINDO(NStates=15,Singlets)
