%nproc=1
%mem=1GB
%Chk=40.chk
#T PM6 OPT

c(s1)c(OC)c(N)c1~c(s1)c(F)c(F)c1_2_2

0  1
C           4.47696         2.00916         3.30901
S           3.12870         1.32036         2.48560
C           5.28633         1.01123         3.84145
F           6.32042         1.25302         4.58456
C           4.85032        -0.27199         3.44423
F           5.51659        -1.33874         3.82740
C           3.72336        -0.30295         2.63751
C           3.09859        -1.46934         1.97422
S           4.12953        -2.81296         1.61128
C           1.79368        -1.75749         1.54215
O           0.79335        -0.82924         1.66615
C          -0.51603        -1.38102         1.77114
C           1.69306        -3.09918         0.96149
N           0.56235        -3.68800         0.44459
C           2.88342        -3.78615         0.96025
C           3.13199        -5.16647         0.50984
S           1.94532        -6.39393         0.70536
C           2.88904        -7.62952        -0.03361
C           4.14427        -7.11665        -0.37767
O           5.08163        -7.95870        -0.90113
C           6.34918        -7.38991        -1.19440
C           4.23962        -5.68847        -0.11545
N           5.29593        -4.87689        -0.42488
C           2.33306        -8.98612        -0.15563
S           0.62998        -9.26665        -0.39809
C           2.96240       -10.21007        -0.09366
F           4.25148       -10.35949         0.07541
C           2.09120       -11.32524        -0.18089
F           2.51794       -12.55772        -0.11433
C           0.76608       -10.98886        -0.36378
C          -0.37920       -11.87933        -0.50871
S          -1.76692       -11.44867        -1.43386
C          -0.55813       -13.14612        -0.00369
F           0.31232       -13.76214         0.75138
C          -1.79118       -13.74357        -0.35682
F          -2.09667       -14.94162         0.05709
C          -2.59686       -12.95231        -1.15611
C          -3.91900       -13.23021        -1.72399
S          -4.72292       -12.04747        -2.70724
C          -4.71805       -14.37375        -1.62166
O          -4.29548       -15.42617        -0.87204
C          -4.69092       -16.71395        -1.31812
C          -5.97647       -14.23585        -2.30821
N          -6.98703       -15.13556        -2.34051
C          -6.08368       -13.03140        -2.95469
H           4.60848         3.07388         3.41148
H          -0.59505        -1.98593         2.68280
H          -1.27481        -0.59494         1.80707
H          -0.80482        -1.92785         0.87554
H          -0.30844        -3.63979         0.94919
H           0.65498        -4.65222         0.12340
H           6.79372        -6.88583        -0.32918
H           7.03867        -8.19286        -1.46811
H           6.27494        -6.72618        -2.06169
H           5.66782        -4.90618        -1.36665
H           6.07663        -4.90599         0.22984
H          -5.58578       -17.02783        -0.77219
H          -4.84422       -16.77924        -2.40045
H          -3.89483       -17.41901        -1.05835
H          -7.07603       -15.83630        -1.61250
H          -7.89023       -14.88558        -2.73428
H          -6.91078       -12.66396        -3.54515


--Link1--
%nproc=1
%mem=1GB
%Chk=40.chk
%NoSave
# Geom=AllCheck ZINDO(NStates=15,Singlets)
