%nproc=1
%mem=1GB
%Chk=41.chk
#T PM6 OPT

c(s1)cc(O)c1~c(s1)c(OCCO2)c2c1_2_5

0  1
C           2.32383        -1.68189         0.36864
S           3.06469        -0.41745        -0.51289
C           1.57059        -1.18570         1.40128
O           0.89380        -1.99352         2.25164
C           0.45826        -1.25238         3.40448
C          -0.11456         0.11310         3.01477
O           0.87834         0.94000         2.38619
C           1.57303         0.23538         1.45283
C           2.37482         0.82039         0.48595
C           2.63207         2.22892         0.22461
S           1.43422         3.42039         0.55594
C           2.39926         4.72398        -0.00902
C           3.62903         4.25714        -0.43249
C           3.75338         2.84323        -0.30629
O           4.86141         2.15917        -0.65922
C           1.92598         6.09683        -0.00925
S           0.25693         6.46826        -0.21977
C           2.64544         7.26866         0.12621
O           3.99249         7.29928         0.31433
C           4.41122         8.58997         0.79093
C           3.74830         9.72410         0.00850
O           2.32341         9.70430         0.16564
C           1.83418         8.44188         0.05104
C           0.48683         8.16989        -0.10573
C          -0.63419         9.08803        -0.20525
S          -0.45132        10.65169        -0.90278
C          -2.09610        11.08117        -0.66468
C          -2.77830        10.03780        -0.06831
C          -1.95073         8.91111         0.18561
O          -2.39265         7.78105         0.77200
C          -2.61470        12.37857        -1.05715
S          -4.26219        12.79943        -0.82259
C          -1.93541        13.42778        -1.64696
C          -2.75975        14.56753        -1.85925
O          -2.30465        15.71944        -2.39278
C          -4.06937        14.39497        -1.44163
C          -5.19169        15.32000        -1.48116
S          -5.31641        16.52988        -2.71543
C          -6.28672        15.41409        -0.63232
O          -6.47937        14.60639         0.44328
C          -7.48652        15.14477         1.31604
C          -8.70200        15.65812         0.53846
O          -8.34854        16.73154        -0.34875
C          -7.19629        16.44293        -1.00330
C          -6.78352        17.15282        -2.09552
H           2.48250        -2.71523         0.09797
H           1.31368        -1.13905         4.08207
H          -0.30395        -1.85012         3.91439
H          -0.96203         0.00224         2.32582
H          -0.46802         0.64080         3.90596
H           4.40035         4.90517        -0.82830
H           5.52993         2.75851        -1.03046
H           5.49881         8.64755         0.68256
H           4.17023         8.65920         1.85917
H           4.10493        10.69283         0.37382
H           3.98158         9.65817        -1.06151
H          -3.83130        10.07951         0.18059
H          -3.33658         7.85353         0.99266
H          -0.88399        13.38711        -1.90230
H          -1.36511        15.63686        -2.63125
H          -7.03175        15.94832         1.90842
H          -7.79083        14.34717         2.00121
H          -9.15640        14.85617        -0.05672
H          -9.45952        16.03753         1.23192
H          -7.27562        17.99075        -2.57029


--Link1--
%nproc=1
%mem=1GB
%Chk=41.chk
%NoSave
# Geom=AllCheck ZINDO(NStates=15,Singlets)
