%nproc=1
%mem=1GB
%Chk=42.chk
#T PM6 OPT

c(s1)c(ON=N2)c2c1~c(s1)c(C)c(C)c1_2_5

0  1
C           2.14118         2.38226         2.20795
S           3.57310         1.65186         1.66754
C           1.08064         1.50426         2.26039
C          -0.29195         1.90125         2.70950
C           1.47014         0.17314         1.81839
C           0.49571        -0.96603         1.75017
C           2.81981         0.11556         1.45539
C           3.61368        -0.99145         0.94775
S           3.32207        -2.67126         1.34939
C           4.60870        -3.29939         0.35022
C           5.20153        -2.21993        -0.18201
O           6.24281        -2.09240        -1.04160
N           6.36634        -0.65427        -1.21952
N           5.40251        -0.00811        -0.50284
C           4.70630        -0.98503         0.12939
C           4.89902        -4.70634         0.15655
S           3.61812        -5.84460         0.22572
C           6.10872        -5.35402        -0.08770
C           7.45714        -4.69005        -0.12605
C           5.93282        -6.79472        -0.30725
C           7.06375        -7.71116        -0.69116
C           4.61544        -7.19835        -0.10221
C           4.04319        -8.53574        -0.12254
S           2.37307        -8.85182        -0.60274
C           2.47070       -10.56562        -0.36142
C           3.72139       -10.80450         0.06630
O           4.34514       -11.96118         0.39707
N           5.68236       -11.52712         0.76364
N           5.78776       -10.17228         0.63861
C           4.57634        -9.75114         0.19830
C           1.41462       -11.49425        -0.58314
S           1.20209       -13.00291         0.24007
C           0.39033       -11.40183        -1.44763
O           0.07246       -10.44226        -2.35011
N          -1.14048       -10.95099        -2.96546
N          -1.47945       -12.15098        -2.41317
C          -0.51908       -12.41494        -1.49332
C          -0.28024       -13.43732        -0.62120
C          -1.00479       -14.66905        -0.36143
S          -0.97516       -15.35937         1.21893
C          -1.78941       -15.44052        -1.22323
C          -2.04276       -15.15287        -2.67427
C          -2.34622       -16.60586        -0.55466
C          -3.22626       -17.63181        -1.19808
C          -1.96227       -16.66097         0.76712
H           2.13899         3.43300         2.46711
H          -1.01488         1.76384         1.89880
H          -0.60373         1.29534         3.56635
H          -0.32709         2.95298         3.01370
H           0.76852        -1.74883         2.46344
H          -0.52189        -0.65245         2.00137
H           0.46345        -1.38372         0.73917
H           8.25762        -5.38990         0.13299
H           7.66149        -4.29948        -1.12748
H           7.52234        -3.87845         0.60417
H           7.95028        -7.16352        -1.02239
H           7.36619        -8.32302         0.16222
H           6.77561        -8.35908        -1.52545
H          -2.62456       -14.23617        -2.78875
H          -1.09940       -15.06627        -3.22186
H          -2.62559       -15.94455        -3.15460
H          -4.13563       -17.16306        -1.58778
H          -2.70085       -18.12293        -2.02356
H          -3.52756       -18.40619        -0.48479
H          -2.22443       -17.41492         1.49752


--Link1--
%nproc=1
%mem=1GB
%Chk=42.chk
%NoSave
# Geom=AllCheck ZINDO(NStates=15,Singlets)
