%nproc=1
%mem=1GB
%Chk=43.chk
#T PM6 OPT

c1[nH]c(c2)c(c1)[nH]c2~c(s1)c(OCO2)c2c1_3_0

0  1
C           7.06054        -8.14689         0.88137
S           5.65444        -9.14808         0.75556
C           6.66987        -6.84321         0.88712
O           7.36988        -5.70499         0.96443
C           6.29638        -4.70801         0.91326
O           4.97922        -5.34055         0.80628
C           5.30967        -6.64289         0.79666
C           4.56280        -7.78606         0.71330
C           3.13803        -7.94650         0.60741
N           2.54456        -9.18845         0.52205
H           3.00353       -10.09005         0.52289
C           1.19456        -9.01375         0.43479
C          -0.01699        -9.73178         0.32348
C           0.92830        -7.68762         0.46599
C           2.14674        -6.97421         0.57173
N          -0.42586        -7.51794         0.38376
H          -0.89212        -6.61961         0.38912
C          -1.01184        -8.76416         0.29661
C          -2.43591        -8.92520         0.19676
S          -3.17732       -10.48929         0.07887
C          -3.42694        -7.98339         0.17756
O          -3.39698        -6.64206         0.24851
C          -4.82616        -6.32011         0.19243
O          -5.64670        -7.52736         0.05572
C          -4.70644        -8.48672         0.06744
C          -4.78647        -9.85047        -0.00515
C          -5.93861       -10.69929        -0.12621
N          -7.21292       -10.17946        -0.21106
H          -7.47998        -9.20290        -0.19880
C          -8.09197       -11.22005        -0.31696
C          -9.46941       -11.51328        -0.44023
C          -7.39245       -12.37818        -0.29650
C          -6.01447       -12.08543        -0.18005
N          -8.27169       -13.41955        -0.39615
H          -8.00335       -14.39570        -0.40006
C          -9.54684       -12.89921        -0.48526
C         -10.70099       -13.74679        -0.60162
S         -12.30822       -13.10274        -0.71318
C         -10.78737       -15.11068        -0.64610
O          -9.85095       -16.07360        -0.59924
C         -10.67667       -17.28117        -0.70070
O         -12.09916       -16.95417        -0.79935
C         -12.06796       -15.61215        -0.76040
C         -13.05560       -14.66780        -0.81382
C         -14.47932       -14.82694        -0.93145
N         -15.33671       -13.74619        -0.98747
H         -15.08968       -12.76583        -0.95443
C         -16.61390       -14.21404        -1.09804
C         -17.95772       -13.78375        -1.20344
C         -16.57305       -15.56859        -1.11070
C         -15.22663       -15.99422        -1.00704
N         -17.85207       -16.03975        -1.21948
H         -18.09337       -17.02234        -1.24931
C         -18.69224       -14.95216        -1.27600
H           8.05227        -8.56954         0.94037
H           6.45203        -4.06660         0.03900
H           6.32735        -4.10918         1.82996
H          -0.14573       -10.80411         0.27134
H           2.28691        -5.90311         0.61724
H          -5.10719        -5.80806         1.11939
H          -5.00957        -5.66725        -0.66779
H         -10.29114       -10.81257        -0.48847
H          -5.19206       -12.78608        -0.13992
H         -10.37965       -17.83735        -1.59658
H         -10.51590       -17.89491         0.19235
H         -18.34011       -12.77283        -1.22377
H         -14.84938       -17.00727        -0.98915
H         -19.76020       -15.10262        -1.36448


--Link1--
%nproc=1
%mem=1GB
%Chk=43.chk
%NoSave
# Geom=AllCheck ZINDO(NStates=15,Singlets)
