%nproc=1
%mem=1GB
%Chk=44.chk
#T PM6 OPT

c(s1)cc(C(=O)C(F)(F)F)c1~C#CC#C_2_3

0  1
C          -1.84715         0.37984         0.03330
S          -1.20926        -1.20784         0.05312
C           0.38428        -0.62235         0.00676
C           0.42745         0.75359        -0.02643
C          -0.86985         1.36446        -0.01483
C          -1.21371         2.79930        -0.04555
O          -2.40465         3.13217        -0.02600
C          -0.10846         3.86066        -0.09651
F           1.16356         3.37669        -0.15051
F          -0.23239         4.67267        -1.18512
F          -0.13903         4.67927         0.99377
C           1.54754        -1.44115         0.00275
C           2.57278        -2.06061        -0.00343
C           3.91279        -2.79213        -0.01605
C           4.97548        -3.34254        -0.03051
C           6.33086        -4.04554        -0.05199
C           7.37454        -4.63110        -0.06809
C           8.66568        -5.44518        -0.08497
C           9.61086        -6.18047        -0.09190
C          10.64124        -7.16030        -0.09185
S          10.29543        -8.82208        -0.13500
C          11.99505        -6.91552        -0.05717
C          12.78443        -8.12453        -0.04994
C          14.25751        -8.21680        -0.01429
O          14.83176        -9.17440        -0.54293
C          15.05838        -7.12174         0.69297
F          14.30022        -6.14084         1.25951
F          15.82272        -7.62349         1.70473
F          15.91696        -6.48619        -0.15366
C          11.95154        -9.23441        -0.09979
C          12.34273       -10.60467        -0.09429
C          12.63111       -11.76844        -0.08965
C          12.97375       -13.25378        -0.08520
C          13.22883       -14.42528        -0.08187
C          13.50717       -15.81910        -0.07799
S          12.28857       -17.00304        -0.15113
C          14.76341       -16.37834        -0.01547
C          14.74486       -17.82343        -0.02548
C          15.96226       -18.65656         0.03558
O          17.06088       -18.09182         0.10320
C          15.87854       -20.18686         0.01685
F          14.62058       -20.70306        -0.05758
F          16.55252       -20.71976        -1.04249
F          16.43178       -20.73974         1.13434
C          13.43807       -18.26905        -0.09905
H          -2.92170         0.51748         0.05662
H           1.37610         1.27521        -0.05814
H          12.39791        -5.90827        -0.04334
H          15.67289       -15.78642         0.03643
H          13.04988       -19.27626        -0.12701


--Link1--
%nproc=1
%mem=1GB
%Chk=44.chk
%NoSave
# Geom=AllCheck ZINDO(NStates=15,Singlets)
