%nproc=1
%mem=1GB
%Chk=45.chk
#T PM6 OPT

c(s1)c(NC=N2)c2c1~c(cn1)ccc1C=C_0_7

0  1
C          -0.90780        -0.65675         2.98751
S          -0.50975         0.85954         2.23768
C          -2.10849         1.52071         2.44618
C          -2.84533         0.57090         3.05665
N          -4.14777         0.52560         3.46724
H          -4.87501         1.22197         3.39563
C          -4.19143        -0.77083         4.02003
N          -3.04407        -1.47976         3.97362
C          -2.20865        -0.60415         3.35793
C          -2.48837         2.85329         1.99630
C          -1.57805         3.91151         1.94247
N          -1.87368         5.17169         1.53439
C          -3.79050         3.14263         1.58454
C          -4.12406         4.42265         1.15959
C          -3.13736         5.40007         1.12706
C          -3.41488         6.75966         0.67854
C          -4.33062         7.03757        -0.26473
C          -4.61245         8.37811        -0.68617
C          -5.53514         8.66487        -1.61994
C          -5.81741        10.02980        -2.05444
N          -6.25874        10.15168        -3.32044
C          -6.52749        11.40819        -3.75884
C          -6.40928        12.57278        -2.99172
C          -5.96410        12.39662        -1.68227
C          -5.67328        11.12169        -1.20613
C          -6.71102        13.89131        -3.53646
S          -6.49647        14.27616        -5.22226
C          -7.16043        15.01515        -2.93888
N          -7.49977        15.31694        -1.64801
C          -7.88081        16.66712        -1.79431
N          -7.80783        17.17485        -3.03643
C          -7.34633        16.10567        -3.74440
C          -7.04134        15.92682        -5.06151
C          -7.08694        16.77890        -6.18923
C          -7.50195        18.05495        -6.08324
C          -7.56135        18.96973        -7.22024
N          -7.15170        18.48997        -8.41466
C          -7.20012        19.33149        -9.46971
C          -7.67287        20.63982        -9.42876
C          -8.08209        21.10419        -8.17355
C          -8.01983        20.26977        -7.05623
C          -7.72391        21.47446       -10.62247
S          -7.54596        23.20827       -10.58554
C          -7.88833        21.12753       -11.91487
N          -8.09364        19.92947       -12.53743
C          -8.15622        20.35317       -13.88143
N          -8.03198        21.67971       -14.09733
C          -7.86314        22.14574       -12.83333
C          -7.70016        23.38226       -12.30723
H          -0.18669        -1.45128         3.09813
H          -5.11604        -1.13795         4.44863
H          -0.53833         3.78607         2.23508
H          -4.56429         2.38417         1.55413
H          -5.14133         4.63662         0.85090
H          -2.81215         7.53428         1.14088
H          -4.89031         6.24457        -0.75287
H          -4.03027         9.16502        -0.21486
H          -6.10031         7.88796        -2.12443
H          -6.85843        11.43702        -4.79447
H          -5.80637        13.23438        -1.01240
H          -5.33192        10.99810        -0.18452
H          -7.48400        14.74218        -0.82069
H          -8.20919        17.23386        -0.93073
H          -6.77632        16.38547        -7.15375
H          -7.81706        18.46647        -5.12999
H          -6.80760        18.88893       -10.37871
H          -8.45657        22.11631        -8.04161
H          -8.33066        20.63861        -6.08378
H          -8.18986        19.00266       -12.14749
H          -8.30186        19.62045       -14.66592
H          -7.66178        24.34418       -12.79444


--Link1--
%nproc=1
%mem=1GB
%Chk=45.chk
%NoSave
# Geom=AllCheck ZINDO(NStates=15,Singlets)
