%nproc=1
%mem=1GB
%Chk=48.chk
#T PM6 OPT

c(s1)cc(c12)scc2~C(C1=C)=CC=C1_2_0

0  1
C          -2.81468         3.59468        -6.38862
C          -2.81991         3.69819        -4.94141
C          -1.85511         4.33366        -4.25986
C          -3.91182         2.89857        -6.73070
C          -4.63874         2.53985        -5.52814
C          -3.99980         2.99489        -4.42544
C          -4.49321         2.77078        -3.09927
S          -5.40708         1.33919        -2.73024
C          -4.33923         3.56593        -1.97390
C          -4.95150         2.99580        -0.81546
C          -5.56681         1.80202        -1.06220
S          -5.09784         3.47486         0.85929
C          -5.98059         2.04430         1.20218
C          -6.17634         1.24169         0.10288
C          -6.87991         0.00885         0.11636
C          -8.30589        -0.20800        -0.15032
C          -9.22027         0.73451        -0.40364
C          -6.35616        -1.20912         0.35814
C          -7.39037        -2.22488         0.24209
C          -8.56296        -1.64794        -0.07979
C          -9.74587        -2.40697        -0.28078
S         -10.12881        -2.98782        -1.85895
C         -10.69107        -2.77018         0.65904
C         -11.75381        -3.52319         0.07394
C         -11.59887        -3.72532        -1.27159
S         -13.21825        -4.25062         0.68743
C         -13.60958        -4.80824        -0.88595
C         -12.67158        -4.48376        -1.84038
C         -12.74659        -4.87684        -3.20392
C         -13.39506        -4.17458        -4.31959
C         -14.01969        -2.99170        -4.24172
C         -12.25237        -6.01759        -3.72382
C         -12.56154        -6.09064        -5.13818
C         -13.25965        -5.00371        -5.52842
C         -13.71557        -4.82097        -6.87291
S         -14.16419        -6.19143        -7.84111
C         -13.89040        -3.63608        -7.57166
C         -14.36943        -3.85291        -8.89751
C         -14.55223        -5.17144        -9.18935
S         -14.77254        -2.82280       -10.24752
C         -15.16279        -4.20117       -11.18846
C         -15.01351        -5.39417       -10.52058
H          -2.06757         3.98971        -7.05625
H          -1.85012         4.39635        -3.18090
H          -1.02823         4.80862        -4.77739
H          -4.21755         2.62864        -7.72858
H          -5.56221         1.98116        -5.56398
H          -3.81885         4.51452        -1.96554
H          -6.32086         1.86936         2.21428
H         -10.26031         0.48183        -0.58460
H          -8.96013         1.78788        -0.43803
H          -5.32291        -1.42926         0.58139
H          -7.20698        -3.28048         0.37783
H         -10.63278        -2.50935         1.70893
H         -14.52549        -5.36833        -1.02203
H         -14.48625        -2.53058        -5.10334
H         -14.09304        -2.43936        -3.31185
H         -11.71682        -6.79055        -3.19385
H         -12.26186        -6.92630        -5.75426
H         -13.67774        -2.65261        -7.17357
H         -15.49313        -4.06320       -12.20884
H         -15.21608        -6.36725       -10.94887


--Link1--
%nproc=1
%mem=1GB
%Chk=48.chk
%NoSave
# Geom=AllCheck ZINDO(NStates=15,Singlets)
