%nproc=1
%mem=1GB
%Chk=49.chk
#T PM6 OPT

c(s1)c(NC=C2)c2c1~c(cc1)ccc1N_0_0

0  1
C          14.56686         6.21591         5.27007
C          13.76239         6.67491         6.31181
C          12.39131         6.89034         6.11812
C          14.01239         6.02008         4.02134
C          12.67499         6.34252         3.81979
C          11.81058         6.71168         4.85992
N          10.41883         6.89502         4.71307
C           9.65909         6.81916         3.59500
S           8.27263         7.81609         3.32599
C           9.75127         5.95983         2.55658
N          10.61106         4.90856         2.41718
C          10.35991         4.48946         1.12603
C           9.25459         5.17006         0.59114
C           8.84832         6.16374         1.53846
C           7.89285         7.09615         1.78470
C           6.69723         7.46202         1.02624
C           6.47978         6.85945        -0.19805
C           5.33813         7.13540        -0.92915
C           5.69429         8.32160         1.48962
C           4.51419         8.54210         0.75015
C           4.34656         8.00202        -0.52785
N           3.19350         8.27675        -1.27806
C           2.75070         7.91067        -2.51756
S           1.04846         8.12787        -2.87866
C           3.33195         7.47180        -3.66635
N           4.65257         7.09599        -3.93206
C           4.65405         6.97970        -5.32026
C           3.36952         7.12159        -5.84499
C           2.51313         7.43872        -4.75827
C           1.18667         7.67765        -4.54835
C           0.04498         7.59266        -5.45751
C           0.05869         6.68506        -6.52726
C          -1.01128         6.60421        -7.42307
C          -1.07974         8.41739        -5.31865
C          -2.16511         8.31214        -6.19819
C          -2.15727         7.38434        -7.24547
N          -3.29855         7.26302        -8.07299
C          -3.68658         6.13774        -8.72964
S          -4.41130         6.12939       -10.30751
C          -3.64531         4.85713        -8.29113
N          -3.23865         4.40271        -7.06857
C          -3.30162         3.02423        -7.24922
C          -3.81820         2.69200        -8.52016
C          -4.05678         3.91123        -9.20343
C          -4.53926         4.39217       -10.36664
H          15.62910         6.04866         5.41417
H          14.20643         6.87348         7.28194
H          11.79280         7.24188         6.95509
H          14.60491         5.66290         3.18336
H          12.35341         6.31294         2.78808
H           9.97597         7.31364         5.52749
H          11.29654         4.58796         3.08818
H          10.97430         3.70604         0.70429
H           8.82977         4.93430        -0.37272
H           7.15117         6.12847        -0.62726
H           5.23424         6.53633        -1.79541
H           5.79479         8.82515         2.44583
H           3.71871         9.11816         1.21682
H           2.59978         8.95421        -0.80656
H           5.40305         6.83195        -3.37757
H           5.60246         6.75183        -5.78657
H           3.13234         7.01008        -6.89125
H           0.90180         6.01490        -6.68107
H          -0.93750         5.91555        -8.26225
H          -1.12476         9.15488        -4.52134
H          -3.03066         8.95023        -6.03700
H          -3.49461         8.14569        -8.54104
H          -2.96385         4.96529        -6.27116
H          -2.97718         2.37882        -6.44324
H          -3.98154         1.68548        -8.88155
H          -4.95997         3.87921       -11.21953


--Link1--
%nproc=1
%mem=1GB
%Chk=49.chk
%NoSave
# Geom=AllCheck ZINDO(NStates=15,Singlets)
