%nproc=1
%mem=1GB
%Chk=50.chk
#T PM6 OPT

c(s1)c(C)c(C=C)c1~c([nH]1)ccc1C#C_0_11

0  1
C          -1.54543        -7.41862         0.06075
S          -0.76617        -5.90944         0.01844
C          -0.66746        -8.48765         0.08333
C          -1.14887        -9.90400         0.09164
C           0.70989        -8.02637         0.06794
C           1.89620        -8.84572         0.05359
C           2.04977       -10.07470         0.56453
C           0.78206        -6.63740         0.02727
C           1.96047        -5.82177         0.00537
C           2.91915        -5.09658        -0.00913
C           4.04320        -4.22538        -0.02178
N           5.34462        -4.65222        -0.00874
H           5.63056        -5.61985         0.01191
C           6.20521        -3.57715        -0.02199
C           5.42045        -2.43936        -0.04494
C           4.05974        -2.84845        -0.04452
C           7.62764        -3.73255        -0.01019
N           8.50597        -2.66999        -0.01336
H           8.23556        -1.69716        -0.02513
C           8.39265        -4.88454         0.00592
C           9.75623        -4.50263         0.01402
C           9.79906        -3.12716        -0.00260
C          10.96188        -2.31112        -0.01264
C          11.98585        -1.68054        -0.01927
C          13.23773        -0.98673        -0.01051
S          14.69461        -1.86779        -0.01511
C          15.67120        -0.45578        -0.03329
C          14.89069         0.69897        -0.03538
C          15.41211         2.10794        -0.04728
C          13.46165         0.37962        -0.01171
C          12.42845         1.38840        -0.01703
C          11.21240         1.30487         0.54181
C          17.10973        -0.61207        -0.03536
N          17.72712        -1.72274        -0.58056
H          17.23424        -2.48580        -1.02379
C          18.12588         0.18647         0.46076
C          19.36398        -0.46421         0.21631
C          19.08585        -1.64629        -0.42897
C          20.00204        -2.63395        -0.87244
C          20.78616        -3.47282        -1.24006
C          21.69846        -4.48435        -1.66715
S          21.14414        -5.94185        -2.37202
C          22.73240        -6.52920        -2.56386
C          23.69404        -5.64706        -2.10680
C          25.16013        -5.93025        -2.16459
C          23.08056        -4.45346        -1.57449
C          23.80767        -3.34426        -1.02974
C          24.11446        -3.20499         0.26714
H          -2.62648        -7.45771         0.05725
H          -0.73225       -10.46131        -0.75291
H          -0.87928       -10.40155         1.02721
H          -2.24083        -9.95184         0.01322
H           2.78128        -8.40880        -0.40836
H           3.00591       -10.58378         0.48981
H           1.26430       -10.60659         1.08389
H           5.77472        -1.41736        -0.05945
H           3.19148        -2.20192        -0.05786
H           8.02200        -5.90037         0.01063
H          10.61469        -5.16144         0.02634
H          14.95605         2.68442        -0.85832
H          15.18119         2.59797         0.90461
H          16.48925         2.17049        -0.20330
H          12.66839         2.33181        -0.50491
H          10.51680         2.13568         0.48365
H          10.87438         0.43027         1.08518
H          18.00972         1.13502         0.96624
H          20.34910        -0.10756         0.48851
H          22.89132        -7.50369        -3.00591
H          25.67792        -5.17119        -2.75890
H          25.58830        -5.94908        -1.15779
H          25.35481        -6.90482        -2.62705
H          24.11993        -2.56793        -1.72536
H          24.66217        -2.33496         0.61571
H          23.82263        -3.94297         1.00791


--Link1--
%nproc=1
%mem=1GB
%Chk=50.chk
%NoSave
# Geom=AllCheck ZINDO(NStates=15,Singlets)
