%nproc=1
%mem=1GB
%Chk=51.chk
#T PM6 OPT

c(s1)cnc1~c(s1)c(OC)c(N)c1_0_9

0  1
C          -1.31371         2.14981        -0.39184
S          -0.75406         0.65690         0.22067
C          -0.37979         2.77036        -1.20168
O          -0.69459         3.97459        -1.74778
C          -0.14041         4.21817        -3.03515
C           0.83426         2.00912        -1.26848
N           1.94693         2.39263        -1.96891
C           0.77763         0.84133        -0.53584
C           1.81941        -0.15023        -0.33441
S           3.47993         0.30377        -0.32472
C           3.95195        -1.32302        -0.11231
C           2.80648        -2.09970        -0.04273
N           1.59692        -1.42560        -0.15300
C           5.34059        -1.72648        -0.05922
S           5.77932        -3.27521        -0.63902
C           6.45277        -1.01925         0.38957
O           6.26957         0.24415         0.87477
C           7.41924         0.97037         1.26715
C           7.66571        -1.78873         0.25379
N           8.90073        -1.35842         0.63911
C           7.44307        -3.03371        -0.32535
C           8.38203        -4.08963        -0.64075
S          10.05628        -3.93543        -0.31879
C          10.35241        -5.49710        -0.93589
C           9.15977        -6.03886        -1.36011
N           8.04020        -5.24095        -1.18622
C          11.66628        -6.05705        -0.94909
S          12.83359        -5.59779         0.20364
C          12.22252        -6.99220        -1.79271
N          13.53535        -7.34899        -1.51815
C          13.97218        -6.69268        -0.45999
C          15.29049        -6.85019         0.11856
S          16.40792        -7.96368        -0.56946
C          17.62886        -7.54357         0.54543
C          17.20892        -6.60218         1.45680
O          18.08556        -6.16373         2.39934
C          17.50470        -5.85187         3.66100
C          15.86366        -6.18252         1.19840
N          15.23982        -5.20783         1.91637
H          -2.30594         2.49564        -0.14821
H           0.93792         4.36208        -3.00525
H          -0.41601         3.43653        -3.75031
H          -0.53284         5.17373        -3.39561
H           2.17210         3.37137        -2.07084
H           2.80293         1.85115        -1.86477
H           2.78595        -3.17384         0.09126
H           7.11320         1.99218         1.50863
H           7.83818         0.55004         2.18656
H           8.16102         1.04358         0.46455
H           9.00950        -0.86353         1.51694
H           9.70463        -1.96856         0.50646
H           9.03588        -7.02504        -1.79189
H          11.72075        -7.45297        -2.63527
H          18.59731        -8.01919         0.48658
H          16.93998        -4.91854         3.63586
H          16.89113        -6.67423         4.04401
H          18.31945        -5.67200         4.36798
H          15.78222        -4.39526         2.19211
H          14.29959        -4.92051         1.65542


--Link1--
%nproc=1
%mem=1GB
%Chk=51.chk
%NoSave
# Geom=AllCheck ZINDO(NStates=15,Singlets)
