%nproc=1
%mem=1GB
%Chk=52.chk
#T PM6 OPT

c(s1)c(cccc2)c2c1~c(nc1)ccc1_1_7

0  1
C          -5.11607         1.07644         3.41326
S          -5.86752        -0.40360         3.01303
C          -3.79541         1.07008         3.05917
C          -2.96835         2.17179         3.28009
C          -1.65162         1.94059         2.83470
C          -1.22068         0.71908         2.22921
C          -2.06250        -0.39748         2.01444
C          -3.37713        -0.17485         2.45124
C          -4.40387        -1.10706         2.38304
C          -4.45507        -2.49251         1.87286
N          -3.62298        -2.77152         0.84691
C          -3.65909        -4.02748         0.32831
C          -5.31102        -3.46086         2.39224
C          -5.32742        -4.74225         1.83174
C          -4.49195        -5.06565         0.75858
C          -4.48613        -6.40147         0.12549
C          -4.81351        -7.57152         0.81488
N          -4.78087        -8.83061         0.29948
C          -4.40879        -8.97628        -0.99090
C          -4.10810        -7.86882        -1.78022
C          -4.14430        -6.58883        -1.21750
C          -4.30879       -10.36879        -1.48433
S          -4.61051       -10.67752        -3.15423
C          -3.99308       -11.56064        -0.85248
C          -3.70287       -11.66396         0.51861
C          -3.35252       -12.96878         0.92203
C          -3.30774       -14.08061         0.03677
C          -3.62872       -14.00286        -1.33450
C          -3.95680       -12.70444        -1.76183
C          -4.30238       -12.37712        -3.06330
C          -4.42397       -13.16966        -4.31221
C          -3.59422       -14.24841        -4.60598
N          -3.65115       -15.00791        -5.73595
C          -4.56459       -14.67793        -6.67691
C          -5.43110       -13.60399        -6.48892
C          -5.36507       -12.86318        -5.30243
C          -4.55908       -15.51377        -7.89896
S          -6.05445       -15.74331        -8.76214
C          -3.54540       -16.21766        -8.54274
C          -2.20942       -16.26282        -8.12006
C          -1.38981       -17.03897        -8.97399
C          -1.86303       -17.70288       -10.14778
C          -3.20103       -17.66072       -10.58522
C          -4.00819       -16.89604        -9.73593
C          -5.33900       -16.71886        -9.97078
H          -5.68944         1.86666         3.87867
H          -3.27688         3.10244         3.73725
H          -0.91787         2.73783         2.95795
H          -0.17879         0.64539         1.91580
H          -1.69992        -1.30637         1.55346
H          -2.95009        -4.17005        -0.48332
H          -5.97483        -3.24347         3.22277
H          -6.02274        -5.46851         2.24597
H          -5.11110        -7.54907         1.86026
H          -3.82626        -7.97086        -2.82300
H          -3.89927        -5.74545        -1.85961
H          -3.74116       -10.84914         1.23021
H          -3.10844       -13.13720         1.97128
H          -3.01856       -15.04976         0.44522
H          -3.61385       -14.89285        -1.94747
H          -2.79790       -14.55291        -3.93394
H          -6.15225       -13.31570        -7.24612
H          -6.06065       -12.03591        -5.18026
H          -1.81307       -15.77453        -7.23958
H          -0.33377       -17.13750        -8.72262
H          -1.14510       -18.27487       -10.73737
H          -3.54176       -18.16926       -11.47733
H          -5.94304       -17.10877       -10.78258


--Link1--
%nproc=1
%mem=1GB
%Chk=52.chk
%NoSave
# Geom=AllCheck ZINDO(NStates=15,Singlets)
