%nproc=1
%mem=1GB
%Chk=53.chk
#T PM6 OPT

c(s1)c(OC)c(C#N)c1~c(o1)nnc1_2_3

0  1
C          11.04387        -2.35283        -1.26160
S           9.40414        -2.58330        -0.86215
C           9.62490        -4.26652        -0.59636
C          10.95364        -4.63985        -0.79305
O          11.29857        -5.95317        -0.66972
C          12.63018        -6.21652        -0.24131
C          11.76782        -3.52544        -1.21203
C          13.15690        -3.51732        -1.57466
N          14.28041        -3.48262        -1.86164
C           8.49500        -5.07679        -0.19934
O           7.17398        -4.78513        -0.49815
N           8.58362        -6.18478         0.51240
N           7.30346        -6.67783         0.67267
C           6.48281        -5.84541         0.05898
C           5.05767        -6.03790        -0.01345
O           4.43279        -7.27210         0.04456
N           4.17565        -5.06173        -0.12575
N           2.92435        -5.64676        -0.12137
C           3.09232        -6.95661        -0.02520
C           2.00014        -7.91075         0.01600
S           0.38207        -7.32894        -0.07077
C           2.01742        -9.29715         0.14709
O           3.21308        -9.94803         0.23957
C           3.19985       -11.17199         0.97442
C           0.68623        -9.86412         0.10714
C           0.34228       -11.25847         0.15349
N           0.08214       -12.39020         0.21506
C          -0.29327        -8.89143         0.02205
C          -1.71839        -9.07664         0.00650
O          -2.63465        -8.06050        -0.05973
N          -2.30619       -10.25396         0.06743
N          -3.65937       -10.03332         0.03851
C          -3.83595        -8.72755        -0.03655
C          -5.11728        -8.08276        -0.09661
S          -6.55194        -9.02243        -0.07596
C          -5.38804        -6.72369        -0.18589
O          -4.33524        -5.85769        -0.21531
C          -4.63962        -4.47372        -0.28699
C          -6.80420        -6.47495        -0.24622
C          -7.47799        -5.22311        -0.36387
N          -8.01704        -4.19258        -0.46222
C          -7.53625        -7.64119        -0.18959
H          11.40216        -1.36655        -1.53255
H          13.35355        -5.99048        -1.02768
H          12.86877        -5.68722         0.68750
H          12.71722        -7.29029        -0.04535
H           2.72038       -11.05095         1.95258
H           2.73592       -11.97597         0.39735
H           4.23394       -11.48277         1.14958
H          -5.05757        -4.21878        -1.26649
H          -5.29653        -4.16693         0.53197
H          -3.70693        -3.91487        -0.17026
H          -8.61198        -7.75007        -0.21984


--Link1--
%nproc=1
%mem=1GB
%Chk=53.chk
%NoSave
# Geom=AllCheck ZINDO(NStates=15,Singlets)
