%nproc=1
%mem=1GB
%Chk=55.chk
#T PM6 OPT

c1oc(c2)c(c1)oc2~c(s1)cc(C)c1_1_4

0  1
C          -1.92476        -0.12836        -0.08917
S          -1.16382        -1.65425        -0.12536
C           0.40031        -0.95823        -0.06105
C           0.32340         0.42207        -0.01606
C          -1.02494         0.91667        -0.02967
C          -1.39864         2.35944         0.01498
C           1.60202        -1.76000        -0.05687
O           2.85999        -1.16965        -0.01034
C           3.74388        -2.19831        -0.01892
C           5.12008        -2.40559         0.01077
C           3.08754        -3.35521        -0.06887
C           1.71051        -3.14849        -0.09351
O           3.97225        -4.38445        -0.07834
C           5.23107        -3.79614        -0.02886
C           6.44470        -4.59074        -0.02406
S           7.97866        -3.81992        -0.00076
C           8.83023        -5.29314        -0.01728
C           7.96527        -6.36500        -0.02664
C           6.57765        -5.97577        -0.04022
C           5.46110        -6.97141        -0.06870
C          10.26925        -5.33275        -0.00837
O          10.96052        -6.39370         0.55945
C          12.27429        -6.08637         0.40753
C          13.52417        -6.61470         0.71922
C          12.39255        -4.92862        -0.24008
C          11.14506        -4.38788        -0.53555
O          13.70398        -4.63237        -0.41102
C          14.40468        -5.67613         0.18274
C          15.85362        -5.70436         0.19161
S          16.70145        -6.99304         0.94396
C          18.22993        -6.35151         0.54632
C          18.09836        -5.16845        -0.15049
C          16.72962        -4.77838        -0.36259
C          16.34326        -3.53378        -1.09777
C          19.44633        -7.02739         0.92902
O          19.42685        -8.22060         1.64291
C          20.72717        -8.55748         1.82247
C          21.48552        -9.56963         2.41556
C          21.51098        -7.63615         1.25750
C          20.75291        -6.62609         0.66601
O          22.81563        -7.97107         1.43556
C          22.77088        -9.14779         2.14082
H          -3.00454        -0.07116        -0.11286
H           1.20054         1.05871         0.02732
H          -1.01224         2.82567         0.92682
H          -0.98538         2.88780        -0.84992
H          -2.48612         2.48973         0.00341
H           5.90951        -1.67150         0.05451
H           0.91676        -3.87840        -0.13098
H           8.30552        -7.39503        -0.04080
H           4.80946        -6.84917         0.80196
H           4.86605        -6.85962        -0.98064
H           5.84823        -7.99636        -0.05002
H          13.76024        -7.52822         1.24264
H          10.90291        -3.47022        -1.04870
H          18.94301        -4.58970        -0.50513
H          15.79023        -3.78386        -2.00883
H          15.72292        -2.88701        -0.46919
H          17.22706        -2.95782        -1.39216
H          21.16794       -10.45123         2.94894
H          21.08924        -5.74990         0.13566
H          23.74329        -9.56259         2.37235


--Link1--
%nproc=1
%mem=1GB
%Chk=55.chk
%NoSave
# Geom=AllCheck ZINDO(NStates=15,Singlets)
