%nproc=1
%mem=1GB
%Chk=56.chk
#T PM6 OPT

c(s1)c(OCO2)c2c1~c(cc1)ccc1_3_2

0  1
C           1.08848         5.40053        -1.16129
C           0.99565         4.77937         0.08057
C           1.70787         3.60009         0.33302
C           1.89271         4.84302        -2.15015
C           2.60573         3.66526        -1.89557
C           2.52991         3.02192        -0.64806
C           3.27040         1.77842        -0.36213
S           4.80797         1.44529        -1.11847
C           2.99557         0.73065         0.47660
O           1.95956         0.48410         1.29662
C           2.33520        -0.81227         1.86321
O           3.61499        -1.27749         1.33264
C           3.93714        -0.27878         0.49646
C           5.02278        -0.07913        -0.31325
C           6.17231        -0.91266        -0.53666
S           6.10121        -2.64246        -0.40632
C           7.45275        -0.57383        -0.88216
O           8.03785         0.61377        -1.09650
C           9.40846         0.21182        -1.40958
O           9.56545        -1.24241        -1.35799
C           8.32288        -1.63534        -1.02895
C           7.78380        -2.87413        -0.80717
C           8.37081        -4.22288        -0.88053
C           9.44482        -4.48991        -1.73731
C          10.00835        -5.77527        -1.82063
C           7.89236        -5.28421        -0.10254
C           8.46611        -6.56339        -0.17731
C           9.53520        -6.84663        -1.04210
C          10.13342        -8.20545        -1.12421
C           9.37723        -9.36876        -0.89253
C           9.94588       -10.65278        -0.96628
C          11.48870        -8.39559        -1.43682
C          12.05726        -9.67630        -1.51749
C          11.29820       -10.82852        -1.27934
C          11.88573       -12.17605        -1.35858
S          13.56790       -12.44927        -0.95187
C          11.34292       -13.39010        -1.69430
O          10.10959       -13.75467        -2.08216
C          10.27967       -15.19859        -2.27725
O          11.65074       -15.62256        -1.98358
C          12.21422       -14.45728        -1.64272
C          13.48109       -14.14777        -1.25770
H           0.53510         6.31525        -1.35856
H           0.36916         5.21111         0.85701
H           1.61624         3.14318         1.31574
H           1.96658         5.32120        -3.12373
H           3.21457         3.25644        -2.69843
H           2.42079        -0.71273         2.95090
H           1.56140        -1.54713         1.61478
H           9.65570         0.55910        -2.41879
H          10.08550         0.66888        -0.67958
H           9.85634        -3.70483        -2.36856
H          10.82463        -5.92148        -2.52496
H           7.06780        -5.13931         0.59163
H           8.06063        -7.33434         0.47399
H           8.31683        -9.30074        -0.65864
H           9.30891       -11.51255        -0.76784
H          12.14184        -7.54445        -1.61546
H          13.11101        -9.74714        -1.77680
H           9.59603       -15.72922        -1.60554
H          10.05036       -15.44636        -3.31952
H          14.34053       -14.79004        -1.13524


--Link1--
%nproc=1
%mem=1GB
%Chk=56.chk
%NoSave
# Geom=AllCheck ZINDO(NStates=15,Singlets)
