%nproc=1
%mem=1GB
%Chk=57.chk
#T PM6 OPT

c(s1)cc(C)c1~c(s1)cc(C)c1_4_4

0  1
C          -1.63660         1.57942         0.82759
S           0.05037         1.37784         0.66583
C          -0.10327        -0.30197         0.33889
C          -1.43353        -0.67847         0.36030
C          -2.33477         0.40436         0.63860
C          -3.81820         0.26987         0.70990
C           1.05653        -1.12969         0.07729
S           1.10757        -2.78326         0.48949
C           2.24468        -0.75103        -0.50225
C           3.19455        -1.82429        -0.65212
C           4.52851        -1.58102        -1.28729
C           2.69275        -3.03081        -0.15472
C           3.32113        -4.35740        -0.09643
S           5.03549        -4.50711         0.06893
C           5.02439        -6.21168         0.05302
C           3.72671        -6.67013        -0.02816
C           2.73587        -5.62652        -0.12208
C           1.27991        -5.95976        -0.23983
C           6.22134        -7.02469         0.15309
S           7.75205        -6.53036        -0.41176
C           6.30662        -8.29295         0.68571
C           7.62730        -8.87046         0.63234
C           7.88274       -10.24046         1.18368
C           8.54269        -8.00471         0.02546
C           9.98247        -8.16993        -0.21566
S          10.94885        -9.08542         0.88651
C          12.40363        -8.82034         0.03666
C          12.16905        -8.03415        -1.06512
C          10.78987        -7.64891        -1.23280
C          10.37199        -6.79656        -2.39081
C          13.66956        -9.36839         0.48378
S          15.15762        -8.57925         0.14143
C          13.89273       -10.52584         1.20466
C          15.27867       -10.77470         1.48402
C          15.80388       -11.94776         2.23986
C          16.06627        -9.77291         0.95431
H          -2.03881         2.55840         1.05270
H          -1.76463        -1.69348         0.16951
H          -4.21474        -0.08750        -0.24595
H          -4.09802        -0.44400         1.49125
H          -4.29719         1.22764         0.93833
H           2.44039         0.26367        -0.83587
H           5.33047        -1.66257        -0.54766
H           4.70708        -2.28048        -2.10864
H           4.58451        -0.56827        -1.70312
H           3.47583        -7.72489        -0.03808
H           0.74225        -5.68044         0.67130
H           0.82942        -5.46135        -1.10315
H           1.13444        -7.03785        -0.37360
H           5.45523        -8.80430         1.12084
H           8.28193       -10.90653         0.41338
H           8.56960       -10.20269         2.03364
H           6.95481       -10.68945         1.55764
H          12.95499        -7.73446        -1.75350
H           9.61061        -7.29933        -2.99282
H           9.99888        -5.82638        -2.05208
H          11.22534        -6.58667        -3.04755
H          13.09386       -11.18783         1.52171
H          16.48228       -12.53395         1.61143
H          16.35342       -11.61532         3.12655
H          14.99317       -12.60535         2.56965
H          17.14373        -9.68485         1.00487


--Link1--
%nproc=1
%mem=1GB
%Chk=57.chk
%NoSave
# Geom=AllCheck ZINDO(NStates=15,Singlets)
