%nproc=1
%mem=1GB
%Chk=6.chk
#T PM6 OPT

c(s1)c(S(=O)(=O)C=C2)c2c1~c(s1)c(OC)c(C(F)(F)F)c1_0_0

0  1
C          -1.91904        -1.35901        -2.51539
S          -1.02282        -2.23891        -1.38478
C          -1.14057        -0.45151        -3.18612
O          -1.60590         0.41730        -4.12189
C          -2.71104        -0.04796        -4.89122
C           0.23333        -0.44963        -2.73383
C           1.24526         0.51005        -3.28357
F           0.76006         1.36032        -4.22644
F           1.76276         1.30441        -2.30823
F           2.28068        -0.13258        -3.88584
C           0.46378        -1.44412        -1.76427
C           1.70015        -1.86115        -1.08729
S           3.22835        -1.11049        -1.41366
C           1.95976        -2.84162        -0.15641
S           1.00691        -4.00456         0.68792
O           0.46936        -4.88995        -0.31958
O           0.21725        -3.24201         1.62849
C           2.38532        -4.72584         1.47801
C           3.51692        -4.07688         1.14410
C           3.32460        -3.00107         0.22498
C           4.17627        -2.10049        -0.36810
C           5.62763        -1.93576        -0.30381
S           6.63892        -3.27891        -0.01746
C           6.39759        -0.78745        -0.48640
O           5.73942         0.39419        -0.66263
C           6.33352         1.57821        -0.15533
C           7.82161        -1.08338        -0.63778
C           8.88756        -0.11121        -1.05938
F           8.48506         1.16064        -1.26481
F           9.87229        -0.03482        -0.12650
F           9.45398        -0.45405        -2.24197
C           8.08634        -2.44452        -0.38549
C           9.34200        -3.20182        -0.47758
S          10.54647        -2.78885        -1.65142
C           9.80507        -4.33888         0.14241
S           9.17384        -5.43275         1.31392
O           8.06847        -6.10817         0.67028
O           9.07057        -4.67430         2.53840
C          10.60662        -6.43729         1.30758
C          11.53350        -5.93599         0.46822
C          11.11143        -4.77423        -0.24207
C          11.67815        -4.02024        -1.23992
C          12.92658        -4.13155        -1.99062
S          13.76342        -2.71348        -2.49579
C          13.60946        -5.26100        -2.42187
O          13.12390        -6.49131        -2.09101
C          14.08758        -7.50751        -1.81910
C          14.70753        -4.94342        -3.33083
C          15.50794        -5.95289        -4.09410
F          14.96879        -7.19713        -4.14243
F          15.68644        -5.59787        -5.39058
F          16.73282        -6.11477        -3.52947
C          14.95342        -3.56075        -3.38856
C          16.04671        -2.81996        -4.03713
S          17.64613        -3.53062        -4.18396
C          16.14882        -1.54375        -4.55507
S          15.08934        -0.20635        -4.80096
O          14.83460         0.34121        -3.47450
O          14.08907        -0.66209        -5.71310
C          16.31292         0.77134        -5.59527
C          17.49093         0.11644        -5.63070
C          17.42088        -1.19001        -5.07394
C          18.35322        -2.17005        -4.94307
H          -2.97835        -1.54941        -2.60953
H          -2.45072        -0.95926        -5.44073
H          -3.60088        -0.20436        -4.27358
H          -2.95940         0.72755        -5.62254
H           2.28442        -5.57172         2.13451
H           4.48453        -4.36340         1.53295
H           5.54767         2.23394         0.22949
H           7.05515         1.39984         0.64917
H           6.77286         2.13793        -0.98552
H          10.68688        -7.31857         1.91998
H          12.51069        -6.37735         0.34009
H          13.93083        -8.32336        -2.53296
H          15.12746        -7.16867        -1.84775
H          13.91812        -7.91883        -0.82092
H          16.10756         1.77503        -5.92566
H          18.40731         0.54367        -6.02113
H          19.39500        -2.17395        -5.23583


--Link1--
%nproc=1
%mem=1GB
%Chk=6.chk
%NoSave
# Geom=AllCheck ZINDO(NStates=15,Singlets)
