%nproc=1
%mem=1GB
%Chk=60.chk
#T PM6 OPT

c(s1)cc(C#N)c1~c(o1)cnc1_0_1

0  1
C           4.61495         2.78513         0.37681
O           4.77492         1.43588         0.33644
C           3.27179         3.05099         0.35123
N           2.56577         1.87500         0.30280
C           3.49380         0.93162         0.29373
C           3.19290        -0.47272         0.24761
S           4.43010        -1.64701         0.20664
C           1.94537        -1.06246         0.23261
C           2.01308        -2.49275         0.20009
C           0.84965        -3.33365         0.20280
N          -0.10487        -3.99199         0.20723
C           3.31764        -2.95612         0.16577
C           3.78967        -4.31544         0.10927
O           2.95664        -5.40787         0.07958
C           5.07478        -4.82504         0.06967
N           5.05979        -6.19634         0.02481
C           3.77643        -6.50816         0.03071
C           3.29786        -7.86324        -0.01059
S           1.63644        -8.23399        -0.01106
C           4.05840        -9.01001        -0.06362
C           3.26489       -10.20349        -0.07515
C           3.88028       -11.50048        -0.11487
N           4.42215       -12.52580        -0.14857
C           1.89761        -9.94339        -0.03132
C           0.75496       -10.85707        -0.04564
S           0.84770       -12.34749        -0.91417
C          -0.74335       -12.81371        -0.51733
C          -1.36300       -11.84731         0.24235
C          -0.51100       -10.72832         0.51913
C          -0.97600        -9.62541         1.31448
N          -1.39652        -8.76432         1.96390
C          -1.30741       -14.06144        -0.95775
O          -2.59032       -14.45742        -0.64022
C          -2.73182       -15.67475        -1.23313
C          -1.56086       -15.96842        -1.87917
N          -0.66586       -14.94681        -1.70150
H           5.51642         3.37821         0.41840
H           2.77943         4.01333         0.36561
H           1.02345        -0.48879         0.25264
H           6.00818        -4.27765         0.07103
H           5.14444        -8.99536        -0.08824
H          -2.38741       -11.93489         0.59178
H          -3.68105       -16.17323        -1.10337
H          -1.31165       -16.84798        -2.45598


--Link1--
%nproc=1
%mem=1GB
%Chk=60.chk
%NoSave
# Geom=AllCheck ZINDO(NStates=15,Singlets)
