%nproc=1
%mem=1GB
%Chk=63.chk
#T PM6 OPT

c(s1)nnc1~C#CC#C_3_3

0  1
C          -1.56064         0.32880         0.00086
S          -0.91320        -1.25661         0.00012
N          -0.66376         1.29118         0.00010
N           0.62473         0.78849        -0.00182
C           0.64112        -0.52727        -0.00249
C           1.84862        -1.27186        -0.00645
C           2.84500        -1.93841        -0.01161
C           4.09861        -2.80577        -0.02002
C           5.10054        -3.46254        -0.02738
C           6.40493        -4.24936        -0.03664
C           7.44861        -4.83641        -0.04310
C           8.76346        -5.60645        -0.05042
C           9.71585        -6.33076        -0.05630
C          10.70769        -7.34541        -0.06430
S          10.27990        -9.00043        -0.05300
N          12.00075        -7.10695        -0.08320
N          12.73641        -8.28635        -0.09309
C          11.95603        -9.34466        -0.08113
C          12.43081       -10.68161        -0.09288
C          12.64668       -11.85974        -0.10255
C          12.74387       -13.38297        -0.11347
C          12.74076       -14.58232        -0.12024
C          12.71400       -16.00199        -0.12667
S          11.27488       -16.93703        -0.07483
N          13.82076       -16.71131        -0.17314
N          13.56884       -18.06979        -0.16846
C          12.27974       -18.32524        -0.11880
H          -2.62343         0.52130         0.00184
H          11.88766       -19.33224        -0.10673


--Link1--
%nproc=1
%mem=1GB
%Chk=63.chk
%NoSave
# Geom=AllCheck ZINDO(NStates=15,Singlets)
