%nproc=1
%mem=1GB
%Chk=7.chk
#T PM6 OPT

c(s1)c(S(=O)(=O)C=C2)c2c1~c(cc1)cc(c12)c(=O)c(c2cc3)cc3_2_6

0  1
C          -2.81039        -7.76006         0.43027
C          -2.93883        -6.35684         0.45585
C          -1.81305        -5.52303         0.42824
C          -1.55215        -8.35999         0.38043
C          -0.45978        -7.51618         0.35615
C          -0.56448        -6.11371         0.37500
C           0.97828        -7.85236         0.30410
O           1.47350        -8.95930         0.27447
C           1.70384        -6.56396         0.29007
C           0.76038        -5.53746         0.32791
C           1.20030        -4.23198         0.30651
C           2.58751        -3.98996         0.24668
C           3.06941        -6.34670         0.24227
C           3.55714        -5.03152         0.21987
C           5.02273        -4.74645         0.17422
S           5.59169        -3.10036         0.13738
C           7.28243        -3.47436         0.10636
C           7.36901        -4.84672         0.12416
S           8.66907        -5.97950         0.11950
O           9.34566        -5.80668         1.37952
O           9.29096        -5.84952        -1.18196
C           7.61762        -7.36497         0.16171
C           6.33010        -6.97732         0.17373
C           6.13450        -5.56012         0.15763
C           8.29951        -2.42665         0.07536
S           9.98976        -2.80074         0.05415
C           8.21390        -1.05437         0.05700
S           6.91307         0.07736         0.04440
O           6.25775        -0.06378         1.32350
O           6.26949        -0.08356        -1.23965
C           7.96540         1.46373         0.04193
C           9.25331         1.07668         0.05355
C           9.44886        -0.34060         0.05403
C          10.56079        -1.15429         0.05084
C          12.02828        -0.87239         0.04157
C          12.99310        -1.91919         0.05133
C          14.38200        -1.68545         0.03468
C          12.52304         0.44119         0.02075
C          13.89151         0.65069         0.01459
C          14.82850        -0.38266         0.01705
C          14.63329         1.93129         0.00312
O          14.15427         3.04574         0.00526
C          16.07013         1.57867        -0.00723
C          16.15685         0.18312        -0.00017
C          17.39876        -0.40658        -0.01153
C          18.53373         0.42606        -0.02732
C          17.17520         2.41665        -0.02204
C          18.46774         1.85160        -0.03216
C          19.70892         2.69921        -0.04698
C          19.64667         4.12446        -0.05145
C          20.78580         4.95359        -0.06559
C          21.00019         2.13162        -0.05608
C          22.10837         2.96519        -0.06763
C          22.02773         4.36039        -0.07422
C          23.54266         2.60128        -0.07296
O          24.00748         1.48188        -0.08027
C          24.29574         3.87396        -0.07540
C          23.36171         4.91755        -0.08615
C          23.81019         6.22221        -0.10864
C          25.19821         6.45108        -0.12860
C          25.66436         4.07406        -0.06896
C          26.14522         5.39437        -0.10308
C          27.59777         5.67826        -0.11556
S          28.69543         4.52678        -0.85675
C          30.10100         5.44789        -0.49988
C          29.72333         6.59542         0.12464
S          30.58637         7.94852         0.72775
O          31.13425         8.59248        -0.44425
O          31.37082         7.43305         1.82560
C          29.12232         8.73276         1.28281
C          28.03871         7.96894         1.02200
C          28.33844         6.74388         0.34868
H          -3.70387        -8.38070         0.44948
H          -3.93185        -5.91315         0.49627
H          -1.92818        -4.44436         0.44762
H          -1.43118        -9.43761         0.35961
H           0.50584        -3.39847         0.33114
H           2.89240        -2.94470         0.22102
H           3.69027        -7.22461         0.22316
H           7.98900        -8.37501         0.17135
H           5.54414        -7.71508         0.19163
H           7.59197         2.47305         0.04291
H          10.04043         1.81341         0.06904
H          12.68298        -2.96309         0.07127
H          15.07249        -2.52271         0.03665
H          11.90380         1.32078         0.00589
H          17.51367        -1.48584        -0.00912
H          19.49117        -0.08903        -0.03570
H          16.99092         3.48451        -0.02523
H          18.68954         4.64052        -0.04388
H          20.67142         6.03292        -0.06815
H          21.18302         1.06344        -0.05393
H          23.11751         7.05800        -0.12116
H          25.52930         7.48496        -0.18425
H          26.32125         3.21026        -0.03603
H          31.09228         5.10911        -0.76882
H          29.14949         9.69097         1.77164
H          27.03777         8.26489         1.30544


--Link1--
%nproc=1
%mem=1GB
%Chk=7.chk
%NoSave
# Geom=AllCheck ZINDO(NStates=15,Singlets)
