%nproc=1
%mem=1GB
%Chk=8.chk
#T PM6 OPT

c(s1)cc(c12)[nH]c(c2s3)cc3~c(s1)c(C(=O)OC2(=O))c2c1_3_3

0  1
C         -12.18664        -8.71489        -6.63668
S         -11.43652        -7.16195        -6.37996
C         -12.61627        -9.35478        -5.47769
C         -12.32266        -8.53478        -4.35842
C         -11.71519        -7.39414        -4.75154
N         -12.42327        -8.44593        -2.99710
H         -12.83387        -9.15185        -2.40010
C         -11.90403        -7.25666        -2.56351
C         -11.45951        -6.63207        -3.67151
S         -10.75062        -5.13774        -3.50320
C         -11.67787        -6.45656        -1.41250
C         -11.07773        -5.24619        -1.77723
C         -10.73288        -4.14307        -0.90140
S         -10.76681        -2.49614        -1.46218
C         -10.38076        -4.13414         0.42345
C         -10.17084        -5.07631         1.48605
O         -10.27768        -6.28939         1.43202
O          -9.84082        -4.36106         2.62539
C          -9.84044        -3.00840         2.34355
O          -9.66943        -2.11388         3.15513
C         -10.15428        -2.85713         0.95384
C         -10.30552        -1.83267         0.06249
C         -10.12724        -0.41848         0.24390
S         -11.27769         0.73077        -0.33798
C          -9.10774         0.25835         0.84989
C          -7.86151        -0.06103         1.47887
O          -7.34943        -1.16509         1.56694
O          -7.29521         1.12404         1.90441
C          -8.10877         2.18511         1.54589
O          -7.85976         3.35733         1.77218
C          -9.25256         1.65067         0.86129
C         -10.38491         2.11038         0.23690
C         -10.84744         3.47036         0.02173
S         -12.56420         3.81060        -0.16926
C         -10.05781         4.62404        -0.05319
C         -10.87663         5.77359        -0.19990
C         -12.17434         5.42388        -0.27894
N         -10.85864         7.13899        -0.28797
H         -10.02508         7.71147        -0.24977
C         -12.13457         7.61878        -0.40582
C         -12.92800         6.53037        -0.41877
S         -14.56881         6.75198        -0.57082
C         -12.90946         8.80399        -0.50508
C         -14.26837         8.48576        -0.60559
C         -15.37560         9.41186        -0.74423
S         -16.94504         9.06313        -0.09761
C         -15.42911        10.64148        -1.34520
C         -14.54021        11.51983        -2.04689
O         -13.34969        11.35572        -2.26477
O         -15.26620        12.62619        -2.44139
C         -16.57687        12.49636        -2.02507
O         -17.45688        13.31561        -2.23923
C         -16.69542        11.24829        -1.32960
C         -17.66521        10.53151        -0.67719
C         -19.06997        10.82596        -0.45923
S         -19.88311        10.23093         0.98556
C         -19.91737        11.56699        -1.29087
C         -21.22224        11.62842        -0.73335
C         -21.27319        10.95842         0.43458
N         -22.48398        12.12076        -0.92820
H         -22.77343        12.67818        -1.72113
C         -23.29659        11.75899         0.11094
C         -22.51804        11.03382         0.94337
S         -23.19960        10.42677         2.34017
C         -24.61481        11.86382         0.62384
C         -24.68851        11.18099         1.83440
H         -12.27001        -9.07553        -7.65306
H         -13.10072       -10.32192        -5.45818
H         -11.95771        -6.73527        -0.40477
H          -8.97822         4.64737         0.01229
H         -12.50342         9.80720        -0.49647
H         -19.62711        12.02451        -2.22778
H         -25.44418        12.38707         0.16676
H         -25.55399        11.07553         2.47484


--Link1--
%nproc=1
%mem=1GB
%Chk=8.chk
%NoSave
# Geom=AllCheck ZINDO(NStates=15,Singlets)
