%nproc=1
%mem=1GB
%Chk=0.chk
#T PM6 OPT

c(s1)c(S(=O)(=O)C=C2)c2c1c(s1)c(S(=O)(=O)C=C2)c2c1c(s1)c(S(=O)(=O)C=C2)c2c1c(s1)c(S(=O)(=O)C=C2)c2c1

0  1
C          -0.53617         1.11568        -0.52056
S          -0.70955        -0.56176        -0.84225
C           0.63244         1.31095         0.14616
S           1.41913         2.70689         0.75708
O           0.56064         3.18845         1.81504
O           1.78465         3.47317        -0.41254
C           2.76188         1.77239         1.37670
C           2.59224         0.45560         1.12142
C           1.38629         0.14654         0.41361
C           0.78638        -1.00558        -0.05653
C           1.21956        -2.38976        -0.01167
S           2.89923        -2.80763        -0.02826
C           0.51580        -3.56656         0.00740
S          -1.15600        -3.97465         0.01743
O          -1.65391        -3.63847        -1.29619
O          -1.67194        -3.44900         1.26066
C          -0.84243        -5.69050         0.13182
C           0.48395        -5.93192         0.15579
C           1.29300        -4.75411         0.08397
C           2.64908        -4.52076         0.09285
C           3.77117        -5.43850         0.15927
S           3.70048        -7.03167        -0.52186
C           5.02718        -5.28524         0.68508
S           5.84061        -4.01203         1.50597
O           5.09839        -3.80824         2.72747
O           6.08312        -2.99374         0.50908
C           7.27947        -4.96465         1.77275
C           7.14034        -6.19480         1.23961
C           5.87513        -6.41992         0.61143
C           5.29850        -7.49487        -0.02489
C           5.83331        -8.81149        -0.31580
S           7.54241        -9.05841        -0.58955
C           5.22100       -10.03239        -0.45890
S           3.60745       -10.61613        -0.35276
O           2.91107       -10.04806        -1.48011
O           3.22655       -10.43039         1.03143
C           4.07613       -12.27743        -0.67181
C           5.40970       -12.36770        -0.85607
C           6.07959       -11.11818        -0.73877
C           7.38854       -10.75589        -0.84091
H          -1.27580         1.84049        -0.83246
H           3.58328         2.24312         1.88844
H           3.31280        -0.29068         1.43064
H          -1.64326        -6.40911         0.15965
H           0.88590        -6.93501         0.22155
H           8.13714        -4.56304         2.28363
H           7.92630        -6.93627         1.29280
H           3.35013       -13.07089        -0.71125
H           5.92556       -13.29602        -1.07013
H           8.25782       -11.36565        -1.05021


--Link1--
%nproc=1
%mem=1GB
%Chk=0.chk
%NoSave
# Geom=AllCheck ZINDO(NStates=15,Singlets)
