%nproc=1
%mem=1GB
%Chk=0.chk
#T PM6 OPT

c(s1)c(S(=O)(=O)C=C2)c2c1c(s1)c(S(=O)(=O)C=C2)c2c1c(s1)c(S(=O)(=O)C=C2)c2c1c(s1)c(S(=O)(=O)C=C2)c2c1

0  1
C          -0.56859         1.12715         0.31291
S          -0.72923        -0.53042         0.72588
C           0.61105         1.29708        -0.34112
S           1.39990         2.66465        -1.00894
O           1.74002         3.49056         0.12790
O           0.55694         3.08660        -2.10358
C           2.75887         1.70874        -1.55725
C           2.59344         0.40601        -1.23686
C           1.37912         0.12732        -0.53335
C           0.78275        -1.00283        -0.01270
C           1.22581        -2.38364         0.01854
S           2.90555        -2.80379         0.08262
C           0.51918        -3.55757         0.03990
S          -1.15370        -3.95642        -0.00084
O          -1.62455        -3.49794        -1.28707
O          -1.69168        -3.54312         1.27660
C          -0.84808        -5.67559        -0.00324
C           0.47672        -5.92417         0.02879
C           1.29156        -4.74832         0.05164
C           2.64918        -4.52149         0.06736
C           3.76144        -5.45375         0.10550
S           3.62901        -6.99097         0.89988
C           5.04162        -5.36260        -0.37516
S           5.91628        -4.17829        -1.26470
O           6.08846        -3.05623        -0.36929
O           5.26952        -4.11258        -2.55165
C           7.37131        -5.14436        -1.32099
C           7.18055        -6.32672        -0.70255
C           5.87069        -6.49417        -0.15215
C           5.24132        -7.50938         0.53124
C           5.73356        -8.80445         0.95981
S           7.41555        -9.04522         1.36764
C           5.09248       -10.00270         1.16051
S           3.48075       -10.57847         0.99141
O           3.18765       -10.47897        -0.41797
O           2.72154        -9.93254         2.03744
C           3.90659       -12.21876         1.45364
C           5.22495       -12.30795         1.72551
C           5.91789       -11.07616         1.56301
C           7.22480       -10.72242         1.71103
H          -1.32154         1.85924         0.57156
H           3.58593         2.15691        -2.07956
H           3.32142        -0.35229        -1.49487
H          -1.65256        -6.39010        -0.01036
H           0.87240        -6.93154         0.03985
H           8.27211        -4.78497        -1.78759
H           7.96447        -7.06873        -0.62781
H           3.16755       -12.99904         1.51192
H           5.71289       -13.22204         2.04205
H           8.07355       -11.32680         2.00292


--Link1--
%nproc=1
%mem=1GB
%Chk=0.chk
%NoSave
# Geom=AllCheck ZINDO(NStates=15,Singlets)
