%nproc=1
%mem=1GB
%Chk=1.chk
#T PM6 OPT

c(s1)c(OCCCO2)c2c1c(s1)c(OCCCO2)c2c1c(s1)c(OCCCO2)c2c1c(s1)c(OCCCO2)c2c1

0  1
C          -0.14950        -1.08033        -1.32395
S          -0.43271         0.53080        -1.79752
C          -0.68369        -1.35533        -0.09381
O          -0.55961        -2.60922         0.41651
C          -0.81571        -2.70124         1.81434
C          -2.30121        -2.61385         2.13476
C          -2.93917        -1.28109         1.75347
O          -1.99302        -0.21386         1.66575
C          -1.35494        -0.22222         0.46739
C          -1.28464         0.90877        -0.34075
C          -1.85362         2.23283        -0.12973
S          -3.32578         2.43394         0.73344
C          -1.41925         3.46368        -0.59859
O          -0.31263         3.56991        -1.38425
C          -0.45095         4.57765        -2.38708
C          -0.04770         5.94138        -1.84839
C          -0.59696         6.20592        -0.45296
O          -1.98272         5.88348        -0.35674
C          -2.21880         4.56110        -0.12247
C          -3.32349         4.14828         0.60578
C          -4.38000         4.94744         1.21913
S          -4.89237         6.42726         0.50883
C          -5.11150         4.70387         2.37069
O          -4.90683         3.57589         3.10994
C          -5.15905         3.74747         4.50238
C          -6.63895         3.61394         4.83607
C          -7.52393         4.43704         3.91345
O          -6.96192         5.72881         3.68338
C          -6.08189         5.72987         2.64439
C          -6.01863         6.79223         1.75523
C          -6.79077         8.02855         1.73448
S          -8.39917         8.08251         2.37035
C          -6.45921         9.27114         1.20346
O          -5.26159         9.50675         0.60925
C          -5.43825        10.03758        -0.70567
C          -5.72941        11.53622        -0.71414
C          -6.23507        12.07654         0.61613
O          -7.51059        11.54642         0.96455
C          -7.49303        10.24786         1.36382
C          -8.60028         9.72726         1.97985
H           0.39952        -1.75350        -1.97059
H          -0.22140        -1.97030         2.37787
H          -0.45438        -3.68780         2.13052
H          -2.43897        -2.78524         3.20846
H          -2.84720        -3.41365         1.61876
H          -3.66644        -1.00299         2.52579
H          -3.51376        -1.36587         0.82142
H          -1.46710         4.58977        -2.80541
H           0.21172         4.30893        -3.21771
H          -0.39909         6.70884        -2.54774
H           1.04517         6.01822        -1.80844
H          -0.49791         7.27497        -0.23302
H          -0.01505         5.68470         0.31950
H          -4.74298         4.69740         4.86469
H          -4.60916         2.95875         5.02847
H          -6.78721         3.93124         5.87491
H          -6.95194         2.56530         4.77246
H          -8.50169         4.58318         4.38651
H          -7.72244         3.91321         2.96793
H          -6.21467         9.47869        -1.24542
H          -4.50622         9.85444        -1.25297
H          -6.46160        11.73772        -1.50631
H          -4.81706        12.07692        -0.99083
H          -6.36952        13.16026         0.51587
H          -5.51059        11.93834         1.42948
H          -9.52366        10.23916         2.21808


--Link1--
%nproc=1
%mem=1GB
%Chk=1.chk
%NoSave
# Geom=AllCheck ZINDO(NStates=15,Singlets)
