66
	Energy: -195269.2881163
C          6.96537       -1.13920       -0.02997
S          5.57635       -2.17140       -0.21946
C          6.57590        0.15617        0.16896
O          7.51350        1.13739        0.35131
C          6.99833        2.49347        0.51355
C          6.11402        2.58656        1.75176
C          4.64194        2.29873        1.45073
O          4.43930        1.51760        0.23702
C          5.13104        0.32536        0.17529
C          4.44916       -0.85362       -0.01640
C          3.04620       -1.01212       -0.06875
S          2.07212        0.45053       -0.00165
C          2.25303       -2.13240       -0.15667
O          2.83630       -3.36491       -0.23623
C          1.92308       -4.50488       -0.28515
C          1.02875       -4.42023       -1.51600
C         -0.26904       -3.65559       -1.24969
O         -0.18451       -2.74206       -0.11927
C          0.83358       -1.81786       -0.16799
C          0.58101       -0.46942       -0.10526
C         -0.64106        0.24432       -0.11631
S         -2.19358       -0.54709       -0.00402
C         -0.78845        1.61033       -0.20574
O          0.31975        2.42717       -0.16831
C          0.48303        3.33542       -1.29653
C         -0.74841        4.19719       -1.57808
C         -1.64133        4.37172       -0.35597
O         -2.65141        3.31596       -0.30496
C         -2.17415        2.04055       -0.20584
C         -3.05226        0.98598       -0.10347
C         -4.46303        0.92523       -0.05310
S         -5.50819        2.30364       -0.28274
C         -5.21535       -0.20737        0.15729
O         -4.59177       -1.43546        0.24040
C         -4.84813       -2.19211        1.46004
C         -6.33582       -2.38427        1.75901
C         -7.20930       -2.25529        0.51645
O         -7.64231       -0.87292        0.33560
C         -6.64723        0.04724        0.14188
C         -6.95707        1.36030       -0.08054
H          7.96798       -1.52136       -0.07713
H          6.47135        2.78084       -0.41408
H          7.94518        3.05430        0.61696
H          6.21093        3.58530        2.22012
H          6.49438        1.86737        2.51099
H          4.07153        3.20948        1.18895
H          4.14819        1.76660        2.28262
H          1.35373       -4.53627        0.66116
H          2.64996       -5.33649       -0.33461
H          0.79395       -5.43525       -1.89216
H          1.60039       -3.92905       -2.33493
H         -1.08914       -4.31149       -0.90085
H         -0.59480       -3.07514       -2.13045
H          0.77226        2.73093       -2.17426
H          1.34816        3.92576       -0.93945
H         -1.35319        3.74276       -2.39480
H         -0.43043        5.18475       -1.96679
H         -2.29262        5.26297       -0.41931
H         -1.07938        4.36278        0.59512
H         -4.32414       -1.68502        2.28901
H         -4.33557       -3.13937        1.20708
H         -6.67378       -1.63250        2.50669
H         -6.49499       -3.36852        2.24117
H         -8.18819       -2.75741        0.62341
H         -6.69775       -2.58547       -0.40560
H         -7.93480        1.80119       -0.13858
