%nproc=1
%mem=1GB
%Chk=10.chk
#T PM6 OPT

c(s1)c(NC(=S)N2)c2c1c(s1)c(NC(=S)N2)c2c1c(s1)c(NC(=S)N2)c2c1c(s1)c(NC(=S)N2)c2c1

0  1
C           0.17103        -1.18008        -0.33146
S           0.53434         0.50945        -0.28283
C          -1.17480        -1.34573        -0.25129
N          -2.04688        -2.40752        -0.24398
C          -3.34910        -1.87455        -0.14068
S          -4.75141        -2.74160        -0.09789
N          -3.24358        -0.46943        -0.08363
C          -1.90284        -0.15127        -0.15247
C          -1.14077         0.98754        -0.15176
C          -1.53774         2.37095        -0.06626
S          -3.20536         2.84815         0.07360
C          -0.77734         3.50867        -0.08071
N           0.56301         3.81800        -0.18134
C           0.67732         5.22162        -0.14875
S           2.07975         6.08262        -0.25222
N          -0.61784         5.76223        -0.01881
C          -1.50342         4.70586         0.02243
C          -2.85590         4.54707         0.11959
C          -3.89506         5.53248         0.24919
S          -3.62163         7.06123         1.02295
C          -5.19870         5.48686        -0.15380
N          -6.01317         4.59086        -0.81478
C          -7.29045         5.17761        -0.91451
S          -8.61487         4.49712        -1.62284
N          -7.23695         6.44615        -0.30432
C          -5.95021         6.63146         0.15664
C          -5.25862         7.61568         0.80997
C          -5.69731         8.90989         1.27314
S          -7.33043         9.48019         1.02513
C          -5.00940         9.89023         1.93951
N          -3.73272        10.07260         2.42919
C          -3.68472        11.35119         3.02305
S          -2.37034        12.03043         3.75192
N          -4.95686        11.94576         2.88595
C          -5.75557        11.04286         2.22596
C          -7.04579        10.99785         1.80351
H           0.95604        -1.91740        -0.41569
H          -1.80812        -3.38579        -0.30748
H          -4.00865         0.18427        -0.00906
H           1.32033         3.15678        -0.27743
H          -0.85299         6.74271         0.01858
H          -5.74517         3.68344        -1.16521
H          -7.99925         7.10305        -0.21917
H          -2.97509         9.40800         2.38109
H          -5.22440        12.86036         3.21726
H          -7.83054        11.73484         1.89566


--Link1--
%nproc=1
%mem=1GB
%Chk=10.chk
%NoSave
# Geom=AllCheck ZINDO(NStates=15,Singlets)
