%nproc=1
%mem=1GB
%Chk=10.chk
#T PM6 OPT

c(s1)c(NC(=S)N2)c2c1c(s1)c(NC(=S)N2)c2c1c(s1)c(NC(=S)N2)c2c1c(s1)c(NC(=S)N2)c2c1

0  1
C           0.06843        -1.24287         0.03438
S           0.35297         0.40457         0.48552
C          -1.13627        -1.32934        -0.58901
N          -1.88910        -2.32370        -1.16624
C          -3.06911        -1.72101        -1.65342
S          -4.29689        -2.49221        -2.43981
N          -3.01392        -0.34283        -1.35312
C          -1.82302        -0.11144        -0.69796
C          -1.16755         0.96344        -0.16217
C          -1.56420         2.34418        -0.08598
S          -3.23176         2.82586         0.00683
C          -0.79426         3.47271        -0.06150
N           0.55200         3.76672        -0.10934
C           0.67942         5.16840        -0.04477
S           2.09451         6.01470        -0.06872
N          -0.61500         5.72176         0.04279
C          -1.51318         4.67525         0.02742
C          -2.87144         4.52607         0.08512
C          -3.90656         5.52157         0.18008
S          -3.71429         7.11565        -0.48312
C          -5.14718         5.44662         0.74903
N          -5.88352         4.50171         1.43249
C          -7.12176         5.08976         1.76279
S          -8.35049         4.36501         2.58989
N          -7.12540         6.40704         1.26572
C          -5.91055         6.62108         0.64900
C          -5.29868         7.65593        -0.00325
C          -5.78266         8.98455        -0.29096
S          -7.37758         9.51681         0.18724
C          -5.17240        10.02633        -0.93755
N          -3.95370        10.26523        -1.53867
C          -3.97323        11.58782        -2.02572
S          -2.74074        12.34308        -2.81972
N          -5.22856        12.15152        -1.71326
C          -5.94915        11.18903        -1.04793
C          -7.18491        11.09555        -0.49115
H           0.79328        -2.01453         0.25064
H          -1.64695        -3.30050        -1.23879
H          -3.71345         0.34710        -1.58311
H           1.30616         3.09842        -0.17483
H          -0.83910         6.70357         0.10471
H          -5.58918         3.56388         1.66224
H          -7.87502         7.07879         1.34997
H          -3.18964         9.61053        -1.61466
H          -5.53202        13.08749        -1.93654
H          -7.97589        11.82924        -0.43307


--Link1--
%nproc=1
%mem=1GB
%Chk=10.chk
%NoSave
# Geom=AllCheck ZINDO(NStates=15,Singlets)
