42
	Energy: -143989.7063913
C         -6.57909       -0.86577        2.19871
S         -4.99893       -1.59700        2.09356
C         -6.67055        0.13639        1.29115
S         -8.01012        1.19617        0.95922
C         -7.23297        2.17218       -0.36857
S         -5.53423        1.59645       -0.69464
C         -5.47826        0.33560        0.49766
C         -4.46560       -0.52174        0.80225
C         -3.14381       -0.65293        0.28115
S         -1.91558        0.52160        0.73960
C         -2.58976       -1.57713       -0.55133
S         -3.33433       -2.94493       -1.32093
C         -1.86398       -3.56281       -2.20252
S         -0.41941       -2.49580       -1.89328
C         -1.18922       -1.36116       -0.82685
C         -0.66072       -0.26972       -0.20749
C          0.66073        0.26972       -0.20749
S          1.91561       -0.52162        0.73955
C          1.18922        1.36118       -0.82683
S          0.41939        2.49584       -1.89323
C          1.86392        3.56293       -2.20236
S          3.33432        2.94494       -1.32095
C          2.58976        1.57714       -0.55133
C          3.14382        0.65292        0.28112
C          4.46561        0.52174        0.80221
S          4.99899        1.59707        2.09344
C          5.47826       -0.33562        0.49765
S          5.53422       -1.59652       -0.69461
C          7.23292       -2.17231       -0.36847
S          8.01012       -1.19620        0.95922
C          6.67056       -0.13640        1.29112
C          6.57911        0.86579        2.19865
H         -7.31467       -1.21635        2.90372
H         -7.20952        3.23900       -0.07584
H         -7.83446        2.08048       -1.29290
H         -2.07299       -3.59096       -3.28896
H         -1.63929       -4.59301       -1.86721
H          1.63922        4.59307       -1.86688
H          2.07288        3.59126       -3.28880
H          7.83442       -2.08074       -1.29280
H          7.20942       -3.23910       -0.07563
H          7.31471        1.21639        2.90363
