30
	Energy:  -91161.9557830
C         -6.37719        0.18295       -0.00089
O         -5.20211        0.93756        0.00012
C         -6.09530       -1.15877       -0.00203
C         -4.66139       -1.28437       -0.00176
C         -4.15075       -0.00607       -0.00045
C         -2.83488        0.56482        0.00044
O         -1.78816       -0.38022        0.00017
C         -2.32945        1.84648        0.00154
C         -0.89947        1.73235        0.00201
C         -0.60398        0.38671        0.00117
C          0.60398       -0.38671        0.00113
O          1.78816        0.38022        0.00019
C          0.89947       -1.73235        0.00186
C          2.32945       -1.84648        0.00135
C          2.83488       -0.56482        0.00036
C          4.15075        0.00607       -0.00050
O          5.20211       -0.93756        0.00033
C          4.66139        1.28437       -0.00198
C          6.09530        1.15877       -0.00210
C          6.37719       -0.18295       -0.00071
H         -7.25786        0.78657       -0.00059
H         -6.78777       -1.97915       -0.00297
H         -4.11019       -2.20647       -0.00245
H         -2.88883        2.76455        0.00197
H         -0.20168        2.55019        0.00287
H          0.20168       -2.55019        0.00265
H          2.88883       -2.76455        0.00169
H          4.11019        2.20647       -0.00288
H          6.78777        1.97915       -0.00311
H          7.25786       -0.78657       -0.00023
