%nproc=1
%mem=1GB
%Chk=14.chk
#T PM6 OPT

c([nH]1)ccc1c([nH]1)ccc1c([nH]1)ccc1c([nH]1)ccc1

0  1
C          -1.06220         0.32839         0.00510
N          -0.31761        -0.82242        -0.01212
H          -0.69469        -1.75892        -0.04039
C          -0.19195         1.39294         0.03207
C           1.12167         0.86123         0.03318
C           1.02366        -0.51743         0.00918
C           2.04472        -1.51859         0.00142
N           3.38545        -1.21108         0.00689
H           3.76245        -0.27591        -0.00523
C           1.95102        -2.89637        -0.01351
C           3.26899        -3.42208        -0.02541
C           4.14459        -2.35641        -0.00879
C           5.57170        -2.32843        -0.01389
N           6.32807        -3.31833        -0.59326
H           5.94904        -4.12358        -1.06752
C           6.44964        -1.39707         0.50014
C           7.76637        -1.84832         0.22431
C           7.66951        -3.04205        -0.46406
C           8.68681        -3.90392        -0.98252
N          10.02938        -3.64544        -0.83052
H          10.41003        -2.84250        -0.35030
C           8.58401        -5.08718        -1.69047
C           9.89578        -5.54788        -1.96549
C          10.76975        -4.63643        -1.42109
H          -2.14291         0.28782        -0.00600
H          -0.46974         2.43865         0.04752
H           2.03741         1.43669         0.04932
H           1.03766        -3.47552        -0.01583
H           3.53815        -4.46996        -0.02786
H           6.18257        -0.49556         1.03554
H           8.68011        -1.34293         0.50569
H           7.66677        -5.57904        -1.98484
H          10.16971        -6.44691        -2.50195
H          11.85074        -4.60537        -1.40165


--Link1--
%nproc=1
%mem=1GB
%Chk=14.chk
%NoSave
# Geom=AllCheck ZINDO(NStates=15,Singlets)
