%nproc=1
%mem=1GB
%Chk=14.chk
#T PM6 OPT

c([nH]1)ccc1c([nH]1)ccc1c([nH]1)ccc1c([nH]1)ccc1

0  1
C          -1.02726         0.34844         0.41334
N          -0.24329        -0.76727         0.55417
H          -0.51850        -1.62149         1.01923
C          -0.29184         1.29910        -0.25645
C           0.98402         0.73889        -0.51448
C           0.99336        -0.54434        -0.00257
C           2.02973        -1.52596         0.00596
N           3.36237        -1.19143        -0.02100
H           3.71342        -0.24597        -0.03459
C           1.95924        -2.90310         0.04316
C           3.28758        -3.40204         0.03733
C           4.14671        -2.32084         0.00626
C           5.57616        -2.26810        -0.00180
N           6.35940        -3.39795         0.02909
H           6.00359        -4.34028         0.06052
C           6.43611        -1.18878        -0.03748
C           7.76382        -1.69037        -0.02953
C           7.69464        -3.06858         0.01314
C           8.73055        -4.05500         0.04008
N          10.06735        -3.73048         0.04166
H          10.43075        -2.78830         0.02337
C           8.65319        -5.43531         0.06936
C           9.97459        -5.94733         0.09158
C          10.82870        -4.86993         0.07437
H          -2.03779         0.36655         0.79838
H          -0.63459         2.28832        -0.53069
H           1.79962         1.22270        -1.03508
H           1.05467        -3.49604         0.05485
H           3.57114        -4.44557         0.05387
H           6.15403        -0.14498        -0.06698
H           8.66541        -1.09369        -0.05267
H           7.74691        -6.02552         0.07502
H          10.26761        -6.98879         0.11761
H          11.90885        -4.81331         0.08222


--Link1--
%nproc=1
%mem=1GB
%Chk=14.chk
%NoSave
# Geom=AllCheck ZINDO(NStates=15,Singlets)
