34
	Energy:  -84673.2162786
C         -6.50906        0.06556       -0.02259
N         -5.36088       -0.52458        0.51263
H         -5.32970       -1.17668        1.27214
C         -6.11454        0.90726       -1.06469
C         -4.69865        0.83253       -1.17757
C         -4.24186       -0.05792       -0.19635
C         -2.90242       -0.48969        0.12921
N         -1.80590        0.37939        0.03452
H         -1.84139        1.33696       -0.26312
C         -2.42949       -1.73274        0.57547
C         -1.02605       -1.62328        0.75926
C         -0.64958       -0.31543        0.42061
C          0.64963        0.31543        0.42061
N          1.80593       -0.37929        0.03431
H          1.84140       -1.33682       -0.26349
C          1.02609        1.62327        0.75936
C          2.42950        1.73277        0.57549
C          2.90242        0.48981        0.12901
C          4.24186        0.05808       -0.19655
N          5.36080        0.52416        0.51294
H          5.32962        1.17624        1.27247
C          4.69871       -0.83203       -1.17805
C          6.11452       -0.90726       -1.06472
C          6.50898       -0.06596       -0.02227
H         -7.49334       -0.14072        0.35296
H         -6.75945        1.50451       -1.67743
H         -4.09851        1.34965       -1.89691
H         -3.01495       -2.61468        0.73360
H         -0.37699       -2.39933        1.10963
H          0.37703        2.39922        1.10997
H          3.01495        2.61473        0.73359
H          4.09863       -1.34865       -1.89781
H          6.75946       -1.50450       -1.67746
H          7.49321        0.13989        0.35364
