%nproc=1
%mem=1GB
%Chk=15.chk
#T PM6 OPT

c(s1)cc(c12)[nH]c(c2s3)cc3c(s1)cc(c12)[nH]c(c2s3)cc3c(s1)cc(c12)[nH]c(c2s3)cc3c(s1)cc(c12)[nH]c(c2s3)cc3

0  1
C           1.66064         1.32550        -0.03583
S           0.07355         2.04926        -0.03459
C           1.66803        -0.06575        -0.01918
C           0.33067        -0.53606        -0.00537
C          -0.53957         0.49774        -0.01245
N          -0.44051        -1.66448         0.01234
H          -0.08317        -2.61067         0.02136
C          -1.76556        -1.32750         0.01449
C          -1.79889         0.01924        -0.00051
S          -3.28419         0.76940        -0.00296
C          -3.07858        -1.86124         0.02566
C          -4.02462        -0.82757         0.01579
C          -5.47805        -0.95902         0.01854
S          -6.22440        -2.55333         0.03340
C          -6.42040         0.07780         0.00872
C          -7.73460        -0.45080         0.01310
C          -7.70778        -1.79781         0.02492
N          -9.05721        -0.10735         0.00833
H          -9.40999         0.84071        -0.00103
C          -9.83263        -1.23234         0.01496
C          -8.97031        -2.26889         0.02401
S          -9.59579        -3.81276         0.02677
C         -11.17205        -1.69385         0.01426
C         -11.19681        -3.09282         0.01893
C         -12.37655        -3.94140         0.02165
S         -13.85998        -3.37316         0.76877
C         -12.48986        -5.22570        -0.52254
C         -13.80098        -5.72462        -0.31971
C         -14.55605        -4.82382         0.34037
N         -14.61855        -6.79707        -0.54320
H         -14.34616        -7.64483        -1.02332
C         -15.85997        -6.55525        -0.02449
C         -15.79354        -5.32474         0.51940
S         -17.15758        -4.71163         1.24920
C         -17.15357        -7.10805         0.14441
C         -17.98189        -6.20818         0.82836
C         -19.38125        -6.40030         1.19279
S         -20.20495        -7.89618         0.76873
C         -20.21096        -5.50049         1.87519
C         -21.50690        -6.05094         2.03572
C         -21.57255        -7.28054         1.48943
N         -22.75119        -5.80589         2.54603
H         -23.02466        -4.95763         3.02451
C         -23.57161        -6.87410         2.31423
C         -22.81323        -7.77765         1.65505
S         -23.51257        -9.22497         1.20857
C         -24.88661        -7.36829         2.50521
C         -24.98013        -8.63966         1.94727
H           2.51892         1.98397        -0.04923
H           2.56346        -0.67303        -0.01775
H          -3.31506        -2.91723         0.03837
H          -6.18069         1.13322        -0.00220
H         -12.05081        -1.06182         0.00395
H         -11.69209        -5.75223        -1.03018
H         -17.45756        -8.08560        -0.20708
H         -19.90764        -4.52351         2.22846
H         -25.70033        -6.85645         3.00142
H         -25.84950        -9.28285         1.92726


--Link1--
%nproc=1
%mem=1GB
%Chk=15.chk
%NoSave
# Geom=AllCheck ZINDO(NStates=15,Singlets)
