%nproc=1
%mem=1GB
%Chk=16.chk
#T PM6 OPT

c(s1)c(cccc2)c2c1c(s1)c(cccc2)c2c1c(s1)c(cccc2)c2c1c(s1)c(cccc2)c2c1

0  1
C           0.40511         0.73406         0.10417
S           0.50619        -0.94156        -0.19254
C          -0.87023         1.08935         0.46786
C          -1.21901         2.42067         0.68378
C          -2.57843         2.56514         1.02308
C          -3.47765         1.46568         1.15641
C          -3.11058         0.11393         0.96279
C          -1.76331        -0.04855         0.58609
C          -1.14575        -1.25806         0.27954
C          -1.65833        -2.63140         0.19110
S          -3.26166        -2.91797        -0.36470
C          -1.04911        -3.85602         0.41843
C           0.22956        -4.01642         0.98526
C           0.67260        -5.35444         1.01402
C          -0.07506        -6.44325         0.49267
C          -1.36007        -6.30766        -0.06657
C          -1.84913        -4.99026        -0.04540
C          -3.14778        -4.63804        -0.38506
C          -4.33387        -5.46442        -0.65368
S          -4.54436        -6.96125         0.18641
C          -5.45291        -5.24562        -1.44336
C          -5.62972        -4.11761        -2.26520
C          -6.87662        -4.06835        -2.91464
C          -7.85810        -5.08473        -2.79887
C          -7.69042        -6.24742        -2.01867
C          -6.45992        -6.30645        -1.33377
C          -6.06946        -7.35297        -0.50895
C          -6.70944        -8.64087        -0.20612
S          -7.48981        -9.52380        -1.49515
C          -6.77574        -9.40168         0.95945
C          -6.18692        -9.06915         2.19398
C          -6.44067       -10.02041         3.21011
C          -7.23350       -11.19239         3.02834
C          -7.83651       -11.54004         1.80449
C          -7.56579       -10.61005         0.80090
C          -8.04346       -10.77405        -0.47483
H           1.26742         1.36795        -0.03672
H          -0.55037         3.26741         0.59074
H          -2.96590         3.56918         1.19507
H          -4.51286         1.68356         1.42318
H          -3.83589        -0.67528         1.09597
H           0.84156        -3.22357         1.39328
H           1.64880        -5.56637         1.45138
H           0.36303        -7.44099         0.53886
H          -1.88005        -7.16731        -0.46738
H          -4.90972        -3.32847        -2.42708
H          -7.09687        -3.20208        -3.53907
H          -8.79049        -4.95999        -3.35002
H          -8.47551        -6.98960        -1.97739
H          -5.58680        -8.19577         2.40200
H          -6.00798        -9.84609         4.19623
H          -7.37967       -11.85122         3.88405
H          -8.43334       -12.43544         1.68474
H          -8.65607       -11.57182        -0.86860


--Link1--
%nproc=1
%mem=1GB
%Chk=16.chk
%NoSave
# Geom=AllCheck ZINDO(NStates=15,Singlets)
