54
	Energy: -143378.1976457
C          6.97730       -0.10213       -0.53154
S          5.75518       -1.21448       -0.08305
C          6.45690        1.17073       -0.61664
C          7.14601        2.39074       -0.96459
C          6.46671        3.56804       -0.98714
C          5.05762        3.62635       -0.66377
C          4.36255        2.50530       -0.33306
C          5.03200        1.22835       -0.30237
C          4.50718       -0.01439        0.01164
C          3.17877       -0.40611        0.34622
S          1.89251       -0.08304       -0.76868
C          2.68455       -1.06612        1.45888
C          3.40648       -1.50086        2.62984
C          2.74980       -2.14651        3.63022
C          1.33069       -2.41212        3.54447
C          0.60336       -2.01118        2.46783
C          1.24863       -1.30988        1.38471
C          0.67736       -0.82217        0.22110
C         -0.67749       -0.82267       -0.21975
S         -1.89251       -0.08094        0.76822
C         -1.24886       -1.31324       -1.38210
C         -0.60365       -2.01713       -2.46356
C         -1.33104       -2.42069       -3.53918
C         -2.75017       -2.15544       -3.62541
C         -3.40678       -1.50729       -2.62657
C         -2.68478       -1.06960       -1.45678
C         -3.17887       -0.40675       -0.34574
C         -4.50721       -0.01412       -0.01199
S         -5.75556       -1.21374        0.08436
C         -5.03174        1.22923        0.30011
C         -4.36201        2.50607        0.32889
C         -5.05685        3.62780        0.65778
C         -6.46598        3.57034        0.98108
C         -7.14555        2.39315        0.96033
C         -6.45668        1.17244        0.61435
C         -6.97742       -0.10041        0.53112
H          7.99419       -0.40519       -0.71074
H          8.20594        2.32904       -1.20194
H          6.96284        4.50206       -1.24716
H          4.57381        4.60161       -0.69318
H          3.30307        2.53557       -0.08048
H          4.47388       -1.28893        2.68136
H          3.27309       -2.48205        4.52448
H          0.86556       -2.94416        4.37323
H         -0.46538       -2.20742        2.38683
H          0.46510       -2.21313       -2.38218
H         -0.86591       -2.95461       -4.36674
H         -3.27359       -2.49333       -4.51870
H         -4.47421       -1.29560       -2.67856
H         -3.30250        2.53574        0.07634
H         -4.57281        4.60299        0.68572
H         -6.96195        4.50489        1.23953
H         -8.20552        2.33206        1.19768
H         -7.99439       -0.40292        0.71072
