54
	Energy: -119818.3721509
C         -6.52088       -1.83583       -0.39690
S         -5.03037       -2.04792        0.46889
C         -6.56024       -0.61721       -1.00572
C         -7.69109       -0.11792       -1.82949
C         -5.35897        0.18415       -0.77103
C         -5.19704        1.54646       -1.33693
C         -4.43849       -0.45959        0.01142
C         -3.14450       -0.05593        0.46578
S         -1.83079       -0.00523       -0.69587
C         -2.70190        0.30542        1.70946
C         -3.54691        0.37509        2.92776
C         -1.27792        0.63339        1.73904
C         -0.59696        1.05417        2.98881
C         -0.67371        0.51326        0.51678
C          0.68379        0.71785        0.11757
S          1.89005       -0.44178        0.64365
C          1.25709        1.69393       -0.65212
C          0.52949        2.83817       -1.25634
C          2.69518        1.51030       -0.83372
C          3.51038        2.44964       -1.64400
C          3.18068        0.40383       -0.19033
C          4.50701       -0.12081       -0.09665
S          5.69057        0.75524        0.86029
C          5.06679       -1.25167       -0.62719
C          4.36246       -2.23022       -1.49186
C          6.47270       -1.41435       -0.25473
C          7.27967       -2.57273       -0.71668
C          6.93886       -0.40941        0.53866
H         -7.26821       -2.60881       -0.40945
H         -8.48680       -0.86618       -1.94410
H         -7.35555        0.15896       -2.83986
H         -8.14613        0.77644       -1.37890
H         -6.05274        2.18994       -1.08888
H         -5.11496        1.51132       -2.43347
H         -4.29227        2.04691       -0.96034
H         -4.60443        0.15845        2.71391
H         -3.50548        1.37209        3.38886
H         -3.21316       -0.35238        3.68275
H         -1.09232        1.92329        3.44412
H          0.45451        1.33132        2.81749
H         -0.59988        0.24387        3.73319
H         -0.50594        2.91033       -0.89118
H          0.48093        2.74129       -2.35121
H          1.02276        3.79395       -1.02974
H          3.06624        2.61664       -2.63543
H          4.53427        2.07884       -1.80384
H          3.59486        3.42848       -1.14893
H          3.35276       -1.88960       -1.76874
H          4.24617       -3.19785       -0.98111
H          4.91165       -2.41236       -2.42612
H          6.81517       -3.52477       -0.41961
H          8.29765       -2.56417       -0.30477
H          7.37061       -2.58150       -1.81294
H          7.92596       -0.28936        0.94757
