%nproc=1
%mem=1GB
%Chk=18.chk
#T PM6 OPT

c(cc1)ccc1c(cc1)ccc1c(cc1)ccc1c(cc1)ccc1

0  1
C          -1.52788        -0.13952         0.67734
C          -0.89359        -1.10174        -0.09899
C           0.47135        -0.98563        -0.38722
C          -0.79646         0.93600         1.17149
C           0.57094         1.04159         0.89202
C           1.24070         0.08789         0.10382
C           2.68986         0.20443        -0.19716
C           3.31175         1.45372        -0.35799
C           4.68314         1.56429        -0.64252
C           3.51024        -0.92392        -0.33555
C           4.88152        -0.81343        -0.62061
C           5.50350         0.43602        -0.78147
C           6.95191         0.55170        -1.08321
C           7.62385        -0.39711        -1.86526
C           8.99771        -0.29320        -2.14161
C           7.72309         1.62120        -0.59908
C           9.09229         1.73637        -0.89411
C           9.76873         0.78164        -1.66692
C          11.21993         0.89764        -1.96891
C          11.77253         0.38505        -3.15779
C          13.13961         0.48922        -3.44112
C          12.11135         1.52767        -1.07752
C          13.47752         1.64314        -1.36168
C          13.99186         1.12165        -2.54215
H          -2.58835        -0.22571         0.89758
H          -1.45846        -1.94480        -0.48864
H           0.92495        -1.74688        -1.01758
H          -1.28542         1.69258         1.77955
H           1.11221         1.88453         1.31645
H           2.73344         2.37202        -0.28232
H           5.09326         2.56380        -0.77172
H           3.09991        -1.92321        -0.20578
H           5.45937        -1.73198        -0.69654
H           7.08636        -1.24397        -2.28916
H           9.45395        -1.08284        -2.73323
H           7.27357         2.38629         0.02849
H           9.61759         2.60681        -0.50540
H          11.13968        -0.09787        -3.89878
H          13.53349         0.07922        -4.36739
H          11.75632         1.93101        -0.13185
H          14.13692         2.13826        -0.65323
H          15.05233         1.20686        -2.76227


--Link1--
%nproc=1
%mem=1GB
%Chk=18.chk
%NoSave
# Geom=AllCheck ZINDO(NStates=15,Singlets)
