%nproc=1
%mem=1GB
%Chk=19.chk
#T PM6 OPT

c(s1)cc(c12)Cc(c2s3)cc3c(s1)cc(c12)Cc(c2s3)cc3c(s1)cc(c12)Cc(c2s3)cc3c(s1)cc(c12)Cc(c2s3)cc3

0  1
C           3.93861        -6.39752        -6.65698
S           5.07259        -6.13014        -5.37290
C           3.32322        -5.22923        -7.08473
C           3.79733        -4.12390        -6.34580
C           4.73691        -4.50195        -5.40393
C           3.55359        -2.62591        -6.31424
C           4.51920        -2.24638        -5.20682
C           5.17734        -3.35140        -4.70732
S           6.25334        -3.02498        -3.48423
C           4.93185        -1.06225        -4.56079
C           5.89524        -1.32574        -3.58658
C           6.56282        -0.36918        -2.73206
S           6.84326         1.25549        -3.28815
C           7.04059        -0.55568        -1.43417
C           7.58749         0.63741        -0.90967
C           7.51244         1.66437        -1.82802
C           8.18328         1.11737         0.40612
C           8.36646         2.59034         0.06994
C           7.98715         2.85108        -1.23067
S           8.12404         4.43114        -1.69797
C           8.76377         3.77493         0.73750
C           8.63754         4.88823        -0.09527
C           8.89394         6.27442         0.23047
S           8.02396         7.55661        -0.56869
C           9.80693         6.77800         1.15901
C           9.84291         8.19315         1.12112
C           8.94375         8.69402         0.20279
C          10.66183         9.31007         1.74980
C          10.11497        10.48730         0.95697
C           9.10743        10.09238         0.10212
S           8.46754        11.29959        -0.83761
C          10.40750        11.86011         0.79975
C           9.59874        12.44295        -0.17701
C           9.64071        13.79999        -0.67110
S          11.14352        14.67681        -0.72734
C           8.58175        14.56280        -1.16242
C           9.01528        15.85077        -1.54399
C          10.37298        16.00799        -1.34986
C           8.38098        17.11654        -2.09091
C           9.61541        17.99879        -2.15235
C          10.74207        17.32107        -1.72552
S          12.14367        18.21499        -1.75399
C           9.91198        19.33064        -2.51317
C          11.26556        19.58802        -2.34529
H           3.78815        -7.40182        -7.02810
H           2.58728        -5.19499        -7.87806
H           2.51990        -2.39513        -6.04043
H           3.82712        -2.15494        -7.26215
H           4.55500        -0.07096        -4.78416
H           6.95808        -1.49093        -0.89204
H           9.14284         0.63308         0.60789
H           7.48464         0.98072         1.23549
H           9.07590         3.83063         1.77273
H          10.45051         6.15597         1.76824
H          11.73169         9.17125         1.57575
H          10.44078         9.41300         2.81608
H          11.18219        12.39468         1.33687
H           7.55878        14.20985        -1.21944
H           7.63630        17.51879        -1.39907
H           7.95456        16.95476        -3.08460
H           9.20110        20.06606        -2.86803
H          11.79446        20.51199        -2.53360


--Link1--
%nproc=1
%mem=1GB
%Chk=19.chk
%NoSave
# Geom=AllCheck ZINDO(NStates=15,Singlets)
