%nproc=1
%mem=1GB
%Chk=19.chk
#T PM6 OPT

c(s1)cc(c12)Cc(c2s3)cc3c(s1)cc(c12)Cc(c2s3)cc3c(s1)cc(c12)Cc(c2s3)cc3c(s1)cc(c12)Cc(c2s3)cc3

0  1
C           3.64365        -6.47953        -6.27911
S           4.42833        -6.15552        -4.76686
C           3.51452        -5.34902        -7.07270
C           4.06605        -4.22425        -6.42086
C           4.58271        -4.55230        -5.18124
C           4.24601        -2.74891        -6.72546
C           4.94984        -2.32520        -5.45012
C           5.12444        -3.38671        -4.58732
S           5.88909        -3.00358        -3.16536
C           5.47476        -1.12997        -4.91523
C           6.03202        -1.33492        -3.65057
C           6.65573        -0.34891        -2.78632
S           6.78364         1.31376        -3.29529
C           7.20158        -0.52785        -1.51121
C           7.68314         0.68985        -0.97625
C           7.49292         1.72988        -1.85836
C           8.32518         1.17308         0.31670
C           8.42371         2.65876         0.00043
C           7.94382         2.92740        -1.26380
S           7.99552         4.51791        -1.71180
C           8.84628         3.84328         0.65298
C           8.64124         4.96326        -0.15432
C           8.93228         6.34708         0.15151
S           7.98825         7.63574        -0.54742
C           9.94796         6.84346         0.97037
C          10.00189         8.25815         0.91045
C           9.01270         8.76491         0.09383
C          10.90987         9.36528         1.42275
C          10.29921        10.54299         0.67829
C           9.19236        10.15816        -0.04905
S           8.47609        11.36610        -0.93111
C          10.59952        11.90721         0.46998
C           9.69726        12.49411        -0.41932
C           9.71075        13.84349        -0.93607
S          11.21453        14.68827        -1.17288
C           8.61863        14.62129        -1.31971
C           9.03228        15.89341        -1.77061
C          10.40566        16.02432        -1.73397
C           8.36461        17.16200        -2.26851
C           9.60091        18.01540        -2.48852
C          10.75547        17.32175        -2.17756
S          12.16183        18.18349        -2.38724
C           9.88001        19.33363        -2.90906
C          11.24869        19.56419        -2.90321
H           3.32041        -7.48661        -6.50217
H           3.05342        -5.35131        -8.05191
H           3.28345        -2.24326        -6.83814
H           4.88086        -2.59488        -7.60222
H           5.44674        -0.17208        -5.41998
H           7.23061        -1.47850        -0.99404
H           9.31406         0.72936         0.45983
H           7.67645         0.98992         1.17727
H           9.24761         3.89140         1.65749
H          10.64996         6.21652         1.50522
H          11.94952         9.20074         1.12666
H          10.81760         9.48798         2.50393
H          11.43896        12.43183         0.90812
H           7.58939        14.28959        -1.25693
H           7.71217        17.59373        -1.50496
H           7.82435        16.99114        -3.20348
H           9.14741        20.07741        -3.19529
H          11.77023        20.47266        -3.17089


--Link1--
%nproc=1
%mem=1GB
%Chk=19.chk
%NoSave
# Geom=AllCheck ZINDO(NStates=15,Singlets)
