%nproc=1
%mem=1GB
%Chk=2.chk
#T PM6 OPT

c(o1)nnc1c(o1)nnc1c(o1)nnc1c(o1)nnc1

0  1
C           0.22882         1.26995         0.34793
O           1.47266         0.72334         0.39852
N          -0.69723         0.42355        -0.03421
N          -0.05268        -0.77934        -0.23956
C           1.23261        -0.57980         0.01438
C           2.23785        -1.58717        -0.08565
O           1.98355        -2.93945        -0.10030
N           3.53539        -1.33846        -0.15975
N           4.17858        -2.55744        -0.21428
C           3.24198        -3.49151        -0.16787
C           3.50653        -4.89290        -0.14740
O           4.73437        -5.44870         0.12957
N           2.58753        -5.82414        -0.34755
N           3.20503        -7.04447        -0.17197
C           4.47174        -6.79972         0.12082
C           5.42985        -7.80883         0.43417
O           5.10676        -9.06154         0.91362
N           6.74169        -7.65285         0.33573
N           7.32182        -8.83444         0.75208
C           6.33156        -9.62282         1.09476
H           0.12720         2.30910         0.61831
H           6.36894       -10.62517         1.49195


--Link1--
%nproc=1
%mem=1GB
%Chk=2.chk
%NoSave
# Geom=AllCheck ZINDO(NStates=15,Singlets)
