%nproc=1
%mem=1GB
%Chk=2.chk
#T PM6 OPT

c(o1)nnc1c(o1)nnc1c(o1)nnc1c(o1)nnc1

0  1
C           0.09884         1.21756         0.36398
O           1.35359         0.69547         0.40490
N          -0.81660         0.34703         0.01134
N          -0.15236        -0.84688        -0.18319
C           1.13289        -0.61852         0.04699
C           2.15563        -1.60728        -0.05557
O           1.92756        -2.96449        -0.05494
N           3.44684        -1.33395        -0.15248
N           4.11263        -2.54043        -0.20958
C           3.19518        -3.49243        -0.14196
C           3.48821        -4.88773        -0.12629
O           4.73434        -5.41762         0.11715
N           2.58462        -5.83825        -0.30666
N           3.23349        -7.04559        -0.15422
C           4.50202        -6.77415         0.10581
C           5.49225        -7.76260         0.38109
O           5.21416        -9.02983         0.85035
N           6.79685        -7.57151         0.25014
N           7.41780        -8.74331         0.63339
C           6.45741        -9.56184         0.99050
H          -0.01853         2.25924         0.61711
H           6.53113       -10.56852         1.37131


--Link1--
%nproc=1
%mem=1GB
%Chk=2.chk
%NoSave
# Geom=AllCheck ZINDO(NStates=15,Singlets)
