22
	Energy: -102260.0079142
C         -6.36959        0.14744       -0.00737
O         -5.21860        0.93392       -0.01102
N         -6.04571       -1.15501        0.00697
N         -4.70199       -1.26424        0.01317
C         -4.17784       -0.02360        0.00262
C         -2.83068        0.46583        0.00315
O         -1.78981       -0.48044       -0.00154
N         -2.32165        1.71960        0.00768
N         -0.98425        1.63562        0.00610
C         -0.63675        0.32916        0.00068
C          0.63675       -0.32915       -0.00292
O          1.78980        0.48045        0.00150
N          0.98426       -1.63560       -0.01021
N          2.32165       -1.71958       -0.01081
C          2.83068       -0.46582       -0.00393
C          4.17784        0.02361       -0.00158
O          5.21859       -0.93396        0.00930
N          4.70200        1.26427       -0.00809
N          6.04571        1.15501       -0.00191
C          6.36959       -0.14748        0.00840
H         -7.30573        0.67783       -0.01615
H          7.30572       -0.67789        0.01575
