%nproc=1
%mem=1GB
%Chk=20.chk
#T PM6 OPT

c(s1)c(CCC2)c2c1c(s1)c(CCC2)c2c1c(s1)c(CCC2)c2c1c(s1)c(CCC2)c2c1

0  1
C           0.52704         0.89039         0.52362
S           0.50380        -0.76616         0.96606
C          -0.50041         1.16597        -0.33663
C          -0.98253         2.38545        -1.03023
C          -1.94260         1.79918        -2.10152
C          -2.39173         0.40175        -1.58314
C          -1.29740         0.03042        -0.64189
C          -0.88269        -1.12526        -0.01467
C          -1.43963        -2.45949        -0.06770
S          -3.12112        -2.73878        -0.32487
C          -0.80788        -3.67072         0.09092
C           0.59687        -4.09900         0.34210
C           0.55457        -5.61714         0.03368
C          -0.92278        -6.06418         0.20658
C          -1.68094        -4.79475         0.01286
C          -2.99975        -4.45999        -0.20567
C          -4.16745        -5.31349        -0.30505
S          -4.26504        -6.81412         0.54687
C          -5.33840        -5.12730        -1.00615
C          -5.87442        -4.08140        -1.92297
C          -7.38659        -4.42228        -1.99154
C          -7.51240        -5.92863        -1.64870
C          -6.27735        -6.19041        -0.85476
C          -5.84830        -7.19977        -0.02420
C          -6.52312        -8.42300         0.35555
S          -7.64383        -9.20618        -0.71329
C          -6.42792        -9.15620         1.52035
C          -5.68183        -9.01990         2.80111
C          -5.96234       -10.36395         3.53353
C          -7.15821       -11.05056         2.82055
C          -7.26140       -10.30468         1.54277
C          -7.98809       -10.46781         0.39720
H           1.27808         1.55809         0.91800
H          -0.17422         2.95904        -1.49261
H          -1.53019         3.02861        -0.33322
H          -1.39095         1.67064        -3.04211
H          -2.79061         2.46020        -2.30580
H          -2.50009        -0.30306        -2.41210
H          -3.34268         0.48703        -1.04670
H           0.86267        -3.93344         1.39160
H           1.32002        -3.59170        -0.30282
H           1.24129        -6.18831         0.66640
H           0.85760        -5.77733        -1.00923
H          -1.08293        -6.45129         1.21850
H          -1.17777        -6.83438        -0.52604
H          -5.41657        -4.17723        -2.91313
H          -5.73837        -3.06302        -1.55443
H          -7.82519        -4.17552        -2.96320
H          -7.92018        -3.83685        -1.23070
H          -7.50857        -6.52466        -2.56769
H          -8.43233        -6.12351        -1.09034
H          -6.06590        -8.17630         3.38365
H          -4.60589        -8.89780         2.65289
H          -6.15872       -10.21040         4.59989
H          -5.07705       -11.00837         3.45939
H          -8.07417       -10.94040         3.40979
H          -6.95999       -12.11529         2.66327
H          -8.69608       -11.24548         0.14912


--Link1--
%nproc=1
%mem=1GB
%Chk=20.chk
%NoSave
# Geom=AllCheck ZINDO(NStates=15,Singlets)
