%nproc=1
%mem=1GB
%Chk=20.chk
#T PM6 OPT

c(s1)c(CCC2)c2c1c(s1)c(CCC2)c2c1c(s1)c(CCC2)c2c1c(s1)c(CCC2)c2c1

0  1
C           0.54737         0.86475         0.52217
S           0.52184        -0.79443         0.95487
C          -0.47902         1.14671        -0.33593
C          -0.96043         2.37205        -1.02039
C          -1.91977         1.79529        -2.09699
C          -2.36798         0.39193        -1.59285
C          -1.27666         0.01372        -0.65069
C          -0.86676        -1.14536        -0.02690
C          -1.42974        -2.47787        -0.08051
S          -3.11594        -2.74972        -0.32999
C          -0.80089        -3.69224         0.07093
C           0.60487        -4.12670         0.30908
C           0.54977        -5.64872         0.02447
C          -0.92827        -6.08307         0.21517
C          -1.68102        -4.81193         0.00930
C          -3.00239        -4.46970        -0.17708
C          -4.17615        -5.31817        -0.25456
S          -4.09185        -6.93375        -0.85923
C          -5.48022        -5.04565         0.09264
C          -6.20525        -3.87291         0.66034
C          -7.54506        -4.49469         1.13855
C          -7.76075        -5.77722         0.29355
C          -6.37347        -6.13776        -0.11640
C          -5.76785        -7.26378        -0.62408
C          -6.34941        -8.54823        -0.95304
S          -7.99808        -8.68210        -1.47923
C          -5.78347        -9.80634        -0.92856
C          -4.45123       -10.37281        -0.57372
C          -4.54506       -11.84179        -1.08039
C          -6.05334       -12.18566        -1.20341
C          -6.68525       -10.84511        -1.28553
C          -7.93170       -10.39120        -1.61076
H           1.29933         1.52992         0.92115
H          -0.15145         2.94941        -1.47685
H          -1.50836         3.00952        -0.31835
H          -1.36833         1.67740        -3.03911
H          -2.76846         2.45769        -2.29424
H          -2.47096        -0.30548        -2.42870
H          -3.32148         0.47046        -1.06008
H           0.88959        -3.94915         1.35156
H           1.32112        -3.63347        -0.35442
H           1.23657        -6.21665         0.65987
H           0.84361        -5.82769        -1.01833
H          -1.08904        -6.45857         1.23131
H          -1.18138        -6.86309        -0.50581
H          -6.39235        -3.12811        -0.12056
H          -5.67772        -3.40479         1.49559
H          -8.38335        -3.79574         1.05762
H          -7.45133        -4.77624         2.19574
H          -8.37133        -5.55156        -0.58744
H          -8.24909        -6.55493         0.88731
H          -4.30288       -10.34949         0.51080
H          -3.62017        -9.86268        -1.06628
H          -4.01246       -12.53958        -0.42651
H          -4.08184       -11.90726        -2.07379
H          -6.40018       -12.71865        -0.31198
H          -6.24817       -12.79864        -2.08823
H          -8.80113       -10.95710        -1.91468


--Link1--
%nproc=1
%mem=1GB
%Chk=20.chk
%NoSave
# Geom=AllCheck ZINDO(NStates=15,Singlets)
