58
	Energy: -134205.3712301
C         -6.81532       -1.07718       -1.29999
S         -5.35809       -1.94493       -0.86164
C         -6.63565        0.24155       -1.06476
C         -7.47444        1.46678       -1.22088
C         -6.59194        2.63390       -0.70006
C         -5.21306        2.05351       -0.28353
C         -5.31830        0.58474       -0.52015
C         -4.50226       -0.48585       -0.34070
C         -3.17086       -0.60445        0.15117
S         -1.92913        0.49250       -0.46746
C         -2.60378       -1.44778        1.05236
C         -3.09620       -2.56378        1.91172
C         -1.86520       -3.00899        2.74673
C         -0.64028       -2.17214        2.28899
C         -1.17466       -1.22049        1.27179
C         -0.65209       -0.20422        0.53786
C          0.66457        0.33256        0.45265
S          2.02009       -0.77182        0.18879
C          1.13948        1.60274        0.52774
C          0.52946        2.94864        0.73442
C          1.72011        3.94485        0.70582
C          3.02548        3.13537        0.47901
C          2.59173        1.71106        0.38235
C          3.22286        0.52426        0.18833
C          4.59508        0.18827        0.00643
S          5.79471        0.82196        1.14317
C          5.23120       -0.57965       -0.91513
C          4.81555       -1.37007       -2.10933
C          6.13179       -1.95411       -2.69036
C          7.30743       -1.50709       -1.77900
C          6.68299       -0.65682       -0.72249
C          7.14239        0.04354        0.33807
H         -7.67116       -1.59527       -1.68974
H         -8.41577        1.38780       -0.64710
H         -7.76323        1.62276       -2.27671
H         -7.07581        3.12908        0.15753
H         -6.46787        3.40240       -1.48001
H         -4.98249        2.27514        0.77527
H         -4.39353        2.49896       -0.87850
H         -3.48941       -3.39784        1.30000
H         -3.93031       -2.23641        2.55999
H         -1.67240       -4.08515        2.60920
H         -2.05450       -2.85706        3.82197
H          0.15000       -2.81692        1.85967
H         -0.17331       -1.63681        3.13683
H         -0.01725        2.99736        1.69478
H         -0.20965        3.18189       -0.05476
H          1.77501        4.50793        1.65161
H          1.58251        4.68767       -0.09656
H          3.74108        3.28420        1.30942
H          3.54868        3.45823       -0.44068
H          4.29081       -0.73642       -2.84897
H          4.10549       -2.17303       -1.83460
H          6.28775       -1.59900       -3.72206
H          6.07747       -3.05367       -2.73975
H          8.06836       -0.94592       -2.35146
H          7.82640       -2.37805       -1.33803
H          8.14560        0.15975        0.70247
