%nproc=1
%mem=1GB
%Chk=21.chk
#T PM6 OPT

c(s1)cc(c12)c(=O)c(c2s3)cc3c(s1)cc(c12)c(=O)c(c2s3)cc3c(s1)cc(c12)c(=O)c(c2s3)cc3c(s1)cc(c12)c(=O)c(c2s3)cc3

0  1
C           0.09180        -2.86341        -1.98280
S           0.66888        -1.96867        -0.61636
C           1.04456        -2.98485        -2.98299
C           2.24014        -2.33269        -2.61085
C           2.14631        -1.76188        -1.35829
C           3.54866        -2.10976        -3.20438
O           3.98271        -2.46882        -4.27923
C           4.21583        -1.32772        -2.13620
C           3.29306        -1.16999        -1.04357
S           3.96745        -0.31842         0.25160
C           5.41716        -0.77081        -1.99108
C           5.46521        -0.10867        -0.66562
C           6.50961         0.71354        -0.13811
S           7.54850         1.55774        -1.23847
C           6.79605         1.02991         1.18728
C           7.75084         2.06941         1.26345
C           8.19901         2.43813         0.01476
C           8.22740         2.96965         2.29857
O           8.02234         2.96221         3.49473
C           8.84708         4.02059         1.45354
C           8.95088         3.53540         0.09808
S           9.24138         4.81135        -0.98643
C           8.86851         5.34323         1.64173
C           8.83845         5.96023         0.29145
C           8.28927         7.25129        -0.00335
S           7.59665         7.56724        -1.56567
C           8.16093         8.35064         0.84240
C           7.62543         9.46265         0.14901
C           7.28946         9.13858        -1.14527
C           7.44954        10.88130         0.40761
O           7.64354        11.51515         1.42409
C           7.11202        11.36071        -0.95770
C           6.88586        10.21843        -1.80333
S           6.69204        10.64793        -3.43147
C           7.21452        12.54086        -1.56461
C           7.13912        12.30579        -3.02779
C           7.59847        13.16555        -4.07203
S           8.92819        14.23266        -3.75528
C           7.17964        13.23856        -5.39619
C           7.95850        14.16693        -6.12376
C           8.93663        14.73656        -5.33900
C           8.00575        14.66174        -7.48803
O           7.29653        14.39349        -8.43626
C           9.15863        15.59491        -7.41007
C           9.66652        15.57597        -6.06321
S          10.99722        16.59985        -5.86043
C           9.78644        16.39873        -8.26758
C          10.89383        17.07008        -7.55371
H          -0.91686        -3.25397        -1.97659
H           0.88263        -3.51068        -3.91572
H           6.22363        -0.78193        -2.70611
H           6.25925         0.62899         2.03917
H           8.58701         5.85546         2.54806
H           8.51354         8.37903         1.86664
H           7.50655        13.47134        -1.10917
H           6.36996        12.65004        -5.81285
H           9.55349        16.55106        -9.30838
H          11.55230        17.77563        -8.07537


--Link1--
%nproc=1
%mem=1GB
%Chk=21.chk
%NoSave
# Geom=AllCheck ZINDO(NStates=15,Singlets)
