%nproc=1
%mem=1GB
%Chk=22.chk
#T PM6 OPT

C(C1=O)=CC=C1C(C1=O)=CC=C1C(C1=O)=CC=C1C(C1=O)=CC=C1

0  1
C           0.91049        -1.18535        -0.31259
C          -0.47578        -0.93380        -0.73606
O          -1.04332        -1.52521        -1.63835
C           1.12866        -0.32595         0.68668
C          -0.03424         0.48093         0.92739
C          -1.03645         0.14789         0.10677
C          -2.34563         0.69077        -0.00179
C          -2.73683         2.08496         0.31869
O          -1.98763         2.95261         0.73422
C          -3.47625         0.11670        -0.43013
C          -4.57439         1.03850        -0.38814
C          -4.18834         2.24465         0.04125
C          -4.94564         3.44051         0.20670
C          -6.40262         3.59092        -0.04147
O          -7.15680         2.70452        -0.40743
C          -4.55387         4.66050         0.59675
C          -5.64988         5.58511         0.60800
C          -6.79026         4.99784         0.23309
C          -8.09897         5.54421         0.10410
C          -8.48216         6.95518         0.35654
O          -7.75109         7.86071         0.71378
C          -9.24759         4.95593        -0.25998
C         -10.33894         5.88750        -0.25823
C          -9.92394         7.10214         0.10346
H           1.56320        -1.91812        -0.74944
H           2.04813        -0.23260         1.24625
H          -0.07188         1.24911         1.68836
H          -3.57761        -0.90684        -0.76588
H          -5.57670         0.75982        -0.68616
H          -3.54715         4.95004         0.86773
H          -5.53242         6.62443         0.88632
H          -9.36897         3.91472        -0.52846
H         -11.35239         5.61968        -0.51942
H         -10.47259         8.01963         0.20617


--Link1--
%nproc=1
%mem=1GB
%Chk=22.chk
%NoSave
# Geom=AllCheck ZINDO(NStates=15,Singlets)
