%nproc=1
%mem=1GB
%Chk=23.chk
#T PM6 OPT

C(=C1C(=O)NC(=O)C12)C3C(=O)NC(=O)C=3C=2C(=C1C(=O)NC(=O)C12)C3C(=O)NC(=O)C=3C=2C(=C1C(=O)NC(=O)C12)C3C(=O)NC(=O)C=3C=2C(=C1C(=O)NC(=O)C12)C3C(=O)NC(=O)C=3C=2

0  1
C          -0.28855         1.72408         1.65085
C           0.83893         0.97814         1.92671
C           2.13095         1.50326         2.37468
O           2.32686         2.64124         2.74968
N           3.04954         0.54758         2.09069
C           2.50348        -0.33232         1.21441
O           3.02919        -0.76939         0.20490
C           1.04283        -0.33191         1.43249
C          -1.13414         1.10833         0.75748
C          -2.19393         1.72151        -0.04311
O          -2.53092         2.88613         0.01739
N          -2.60870         0.77471        -0.92186
C          -1.83142        -0.33844        -0.87149
O          -1.75713        -1.22389        -1.70251
C          -0.94416        -0.21122         0.30468
C           0.06306        -1.07983         0.76554
C           0.03864        -2.57585         0.54692
C           1.12446        -3.43723         0.40979
C           2.52367        -3.33874         0.83414
O           2.87453        -2.86098         1.89637
N           3.23731        -4.11812        -0.00382
C           2.41809        -4.97562        -0.65662
O           2.69769        -5.70471        -1.58991
C           1.05147        -4.75280        -0.14203
C          -1.14223        -3.29595         0.31639
C          -2.54969        -2.90895         0.55249
O          -2.91991        -1.98061         1.24551
N          -3.32415        -3.79834        -0.10586
C          -2.56586        -4.70437        -0.76116
O          -2.87231        -5.35668        -1.74134
C          -1.20527        -4.62329        -0.20006
C          -0.11979        -5.50229        -0.30778
C          -0.20090        -7.01768        -0.50511
C           0.87770        -7.90642        -0.59818
C           2.23994        -7.82187        -0.03883
O           2.55416        -7.13160         0.91295
N           2.98692        -8.76158        -0.65966
C           2.21353        -9.57469        -1.41182
O           2.56900       -10.33621        -2.29001
C           0.81194        -9.24687        -1.09679
C          -1.37525        -7.75854        -0.67689
C          -2.74951        -7.50620        -0.20928
O          -3.03403        -6.82363         0.75680
N          -3.56674        -8.29904        -0.93402
C          -2.85500        -9.22320        -1.61508
O          -3.25069        -9.97068        -2.48900
C          -1.44979        -9.08725        -1.18813
C          -0.36917        -9.97162        -1.28471
C          -0.49060       -11.47626        -1.46878
C           0.56979       -12.39303        -1.57597
C           1.84709       -12.44249        -0.83110
O           2.08750       -11.77556         0.16054
N           2.54276       -13.52362        -1.26912
C           1.71017       -14.41308        -1.86533
O           1.89537       -15.59092        -2.06874
C           0.43735       -13.71485        -2.06028
C          -1.70126       -12.19523        -1.49467
C          -2.94251       -11.98162        -0.71696
O          -3.04113       -11.22067         0.22841
N          -3.83731       -12.93124        -1.09385
C          -3.21550       -13.95577        -1.72456
O          -3.63761       -15.07485        -1.93077
C          -1.84398       -13.51341        -1.97890
C          -0.77643       -14.29686        -2.35100
H          -0.37993         2.77215         1.91682
H           4.01818         0.81804         2.00359
H          -3.21377         0.99127        -1.69807
H           4.23931        -4.21683         0.02499
H          -4.31320        -3.67838        -0.25056
H           3.98306        -8.86317        -0.55405
H          -4.57249        -8.27235        -0.89688
H           3.38147       -13.83849        -0.80597
H          -4.71523       -13.06455        -0.61616
H          -0.87979       -15.34516        -2.60826


--Link1--
%nproc=1
%mem=1GB
%Chk=23.chk
%NoSave
# Geom=AllCheck ZINDO(NStates=15,Singlets)
