74
	Energy: -308982.4910864
C          7.98550        0.03266        0.23609
C          7.24817        0.89875        1.03441
C          7.79638        1.88726        2.03518
O          8.90884        2.29563        2.21054
N          6.65306        2.25242        2.81968
C          5.45194        1.63255        2.35694
O          4.42447        1.62135        2.98471
C          5.83221        0.88196        1.09114
C          7.22277       -0.94402       -0.39689
C          7.73345       -2.17694       -1.09984
O          8.84105       -2.50909       -1.41097
N          6.55164       -2.96546       -1.31937
C          5.36200       -2.30093       -0.89879
O          4.27058       -2.81025       -0.91811
C          5.80993       -0.94450       -0.37439
C          5.06029        0.11069        0.19758
C          3.63453        0.33057       -0.13457
C          2.74636        1.19436        0.53890
C          2.98109        2.52950        1.22788
O          3.94804        3.24576        1.21372
N          1.71548        2.91438        1.77040
C          0.66564        2.01404        1.40411
O         -0.47531        2.10010        1.76080
C          1.34233        1.01813        0.48834
C          2.99914       -0.34161       -1.20525
C          3.57637       -0.86159       -2.51374
O          4.68744       -0.77428       -2.96752
N          2.47376       -1.43397       -3.22041
C          1.23828       -1.30113       -2.51119
O          0.18305       -1.73934       -2.87885
C          1.59804       -0.49655       -1.28375
C          0.72829        0.11191       -0.37581
C         -0.72834       -0.12288       -0.37240
C         -1.34232       -1.00387        0.51748
C         -0.66557       -1.97291        1.46161
O          0.47537       -2.04849        1.82069
N         -1.71533       -2.86245        1.85363
C         -2.98091       -2.49358        1.30000
O         -3.94764       -3.21025        1.30598
C         -2.74635       -1.17869        0.57309
C         -1.59813        0.45926       -1.29743
C         -1.23849        1.22826       -2.54750
O         -0.18330        1.65577       -2.92767
N         -2.47405        1.34076       -3.26008
C         -3.57663        0.78903       -2.53710
O         -4.68782        0.68908       -2.98794
C         -2.99920        0.30664       -1.21438
C         -3.63454       -0.33461       -0.12485
C         -5.06028       -0.10510        0.20080
C         -5.83271       -0.85078        1.11535
C         -5.45312       -1.56563        2.40186
O         -4.42604       -1.53673        3.02968
N         -6.65454       -2.17222        2.88118
C         -7.79748       -1.82880        2.08638
O         -8.91012       -2.23182        2.27267
C         -7.24867       -0.86872        1.05863
C         -5.80938        0.93394       -0.40071
C         -5.36073        2.27492       -0.96287
O         -4.26905        2.78293       -0.99645
N         -6.55001        2.92797       -1.40202
C         -7.73220        2.14636       -1.16082
O         -8.83958        2.47012       -1.48142
C         -7.22220        0.93335       -0.42358
C         -7.98545       -0.02502        0.23620
H          9.07567        0.07753        0.15914
H          6.68304        2.88719        3.61511
H          6.55474       -3.88679       -1.75257
H          1.58592        3.73408        2.36067
H          2.56484       -1.89575       -4.12346
H         -1.58571       -3.66481        2.46725
H         -2.56522        1.77647       -4.17599
H         -6.68498       -2.78453        3.69400
H         -6.55264        3.83681       -1.86083
H         -9.07561       -0.07167        0.16015
