%nproc=1
%mem=1GB
%Chk=24.chk
#T PM6 OPT

c(s1)cc(C)c1c(s1)cc(C)c1c(s1)cc(C)c1c(s1)cc(C)c1

0  1
C          -0.93809         1.21236        -0.27013
S           0.65825         0.88627        -0.75595
C          -1.43653         0.22215         0.53286
C          -0.49775        -0.84380         0.76722
C          -0.83745        -2.01320         1.63600
C           0.71166        -0.60899         0.11085
C           1.92580        -1.40907         0.06539
S           1.91762        -3.11638         0.08923
C           3.22464        -0.95034        -0.04601
C           4.21660        -1.99218        -0.11009
C           5.67406        -1.68588        -0.25418
C           3.62963        -3.25194        -0.04130
C           4.24545        -4.56947        -0.07370
S           5.80409        -4.87994         0.55170
C           3.69503        -5.74234        -0.55610
C           4.55411        -6.89275        -0.43395
C           4.11356        -8.25371        -0.87351
C           5.77460        -6.55080         0.14060
C           6.94079        -7.37304         0.42398
S           7.39676        -8.69964        -0.56546
C           7.86136        -7.20999         1.44951
C           8.91591        -8.18372         1.44461
C          10.03229        -8.24538         2.43081
C           8.75699        -9.06199         0.39362
H          -1.43729         2.11740        -0.59541
H          -2.43972         0.25198         0.94850
H          -1.85278        -1.92178         2.03756
H          -0.14959        -2.07620         2.48489
H          -0.80585        -2.94738         1.06913
H           3.47470         0.10389        -0.09071
H           5.83605        -0.62067        -0.45065
H           6.11089        -2.24206        -1.08953
H           6.21034        -1.93028         0.66772
H           2.70234        -5.79248        -0.98892
H           3.08133        -8.23449        -1.23975
H           4.15422        -8.96043        -0.03844
H           4.73353        -8.62337        -1.69476
H           7.78789        -6.42073         2.18910
H           9.93324        -7.47015         3.19697
H          10.99365        -8.10383         1.92590
H          10.04517        -9.21889         2.93187
H           9.38775        -9.90149         0.13414


--Link1--
%nproc=1
%mem=1GB
%Chk=24.chk
%NoSave
# Geom=AllCheck ZINDO(NStates=15,Singlets)
