%nproc=1
%mem=1GB
%Chk=24.chk
#T PM6 OPT

c(s1)cc(C)c1c(s1)cc(C)c1c(s1)cc(C)c1c(s1)cc(C)c1

0  1
C          -0.64114         1.65844        -0.24305
S           0.92346         1.18784        -0.71308
C          -1.25177         0.69955         0.52040
C          -0.42714        -0.45982         0.73908
C          -0.89752        -1.61529         1.56444
C           0.81260        -0.32810         0.11130
C           1.94358        -1.24215         0.06818
S           1.77082        -2.94128         0.07320
C           3.28204        -0.90998        -0.02218
C           4.17031        -2.04132        -0.07980
C           5.65183        -1.87531        -0.20554
C           3.46496        -3.23928        -0.01915
C           3.95431        -4.60937        -0.03216
S           5.46301        -5.05936         0.63046
C           3.30639        -5.72930        -0.51776
C           4.04988        -6.95429        -0.36693
C           3.49364        -8.27244        -0.80562
C           5.28625        -6.72316         0.22898
C           6.36523        -7.64876         0.53777
S           6.70055        -9.02869        -0.42713
C           7.28798        -7.55884         1.57038
C           8.24611        -8.62747         1.58876
C           9.34523        -8.77819         2.58466
C           8.01245        -9.50333         0.54985
H          -1.04108         2.61781        -0.54811
H          -2.25508         0.81708         0.91898
H          -1.87387        -1.40482         2.01471
H          -0.19683        -1.82172         2.37936
H          -1.01626        -2.51075         0.94776
H           3.63317         0.11552        -0.05335
H           5.91694        -0.82973        -0.39493
H           6.04247        -2.46753        -1.03907
H           6.15229        -2.17320         0.72064
H           2.32272        -5.69016        -0.97211
H           2.45796        -8.16919        -1.14680
H           3.49692        -8.98872         0.02226
H           4.06661        -8.67991        -1.64328
H           7.28391        -6.75522         2.29811
H           9.32283        -7.97734         3.33025
H          10.31851        -8.74893         2.08352
H           9.25550        -9.73476         3.10981
H           8.56280       -10.40264         0.30846


--Link1--
%nproc=1
%mem=1GB
%Chk=24.chk
%NoSave
# Geom=AllCheck ZINDO(NStates=15,Singlets)
