42
	Energy: -101712.0678243
C          7.26171        0.12371       -0.32406
S          6.01461       -0.98076        0.17097
C          6.73900        1.35672       -0.55400
C          5.30550        1.43866       -0.33112
C          4.56841        2.71007       -0.52517
C          4.76388        0.24196        0.06652
C          3.42311       -0.13372        0.38239
S          2.14626        0.15634       -0.78681
C          2.91199       -0.74329        1.49064
C          1.48392       -0.98353        1.42457
C          0.76563       -1.64298        2.54161
C          0.92159       -0.54429        0.25217
C         -0.42592       -0.56636       -0.21880
S         -1.69545        0.15203        0.75910
C         -0.95016       -1.05111       -1.38098
C         -2.38195       -0.86050       -1.50588
C         -3.11399       -1.32361       -2.70971
C         -2.93447       -0.22769       -0.42114
C         -4.28095        0.14107       -0.12252
S         -5.53933       -1.08856       -0.13162
C         -4.81633        1.34689        0.22103
C         -6.24608        1.29484        0.47276
C         -7.00482        2.51242        0.85615
C         -6.77591        0.04745        0.31727
H          8.28593       -0.19632       -0.41510
H          7.30562        2.22115       -0.87343
H          5.12426        3.57033       -0.12599
H          3.58394        2.70540       -0.03196
H          4.38996        2.90326       -1.59472
H          3.49182       -1.02680        2.35946
H          1.33211       -2.49469        2.94467
H         -0.22167       -2.02588        2.24009
H          0.59738       -0.93969        3.37229
H         -0.37733       -1.54553       -2.15489
H         -2.56761       -1.08817       -3.63418
H         -4.11114       -0.86571       -2.79736
H         -3.26151       -2.41464       -2.68544
H         -4.26007        2.27085        0.29902
H         -6.92382        3.29144        0.08346
H         -6.61935        2.94179        1.79303
H         -8.07412        2.31181        1.00583
H         -7.79692       -0.26364        0.43886
