82
	Energy: -204272.0626165
C        -14.50832       -0.81615        1.02897
C        -13.51817       -1.79059        0.79905
C        -12.18511       -1.43308        0.59545
C        -14.20278        0.54299        1.06363
C        -12.86491        0.90295        0.85948
C        -11.84180       -0.08085        0.62260
N        -12.27635        2.18940        0.84188
H        -12.75674        3.05616        0.98138
C        -10.89197        2.03998        0.59792
C        -10.59150        0.63938        0.45580
C         -9.28049        0.23928        0.20514
C         -9.89729        3.02040        0.49366
C         -8.59687        2.58998        0.24774
C         -8.28478        1.21895        0.10248
C         -6.88398        0.81864       -0.16274
C         -5.87321        1.18452        0.75612
C         -4.54266        0.82838        0.54763
C         -6.58434        0.08609       -1.31616
C         -5.24647       -0.26654       -1.52261
C         -4.20969        0.09851       -0.59427
N         -4.67031       -0.99308       -2.59022
H         -5.16067       -1.36265       -3.38066
C         -3.27896       -1.09543       -2.35689
C         -2.96306       -0.42756       -1.12120
C         -1.64391       -0.39731       -0.67393
C         -2.29192       -1.71775       -3.13050
C         -0.98257       -1.66676       -2.66052
C         -0.65533       -1.01840       -1.44819
C          0.75401       -0.99915       -0.99378
C          1.74366       -0.43170       -1.82947
C          3.08119       -0.39107       -1.44209
C          1.08235       -1.54185        0.25300
C          2.42710       -1.50140        0.63622
C          3.44259       -0.92536       -0.20460
N          3.03015       -1.97331        1.82499
H          2.55848       -2.42733        2.58206
C          4.41780       -1.70813        1.75365
C          4.70388       -1.05449        0.50322
C          6.01396       -0.68684        0.20372
C          5.42510       -1.99059        2.68396
C          6.72477       -1.61575        2.35476
C          7.02286       -0.97042        1.13336
C          8.42308       -0.58966        0.83728
C          9.42268       -1.58921        0.81387
C         10.75227       -1.27628        0.53854
C          8.73270        0.75124        0.58557
C         10.06918        1.06070        0.31264
C         11.09532        0.05218        0.28515
N         10.65379        2.31651        0.02910
H         10.17132        3.19233       -0.01089
C         12.04057        2.12380       -0.17829
C         12.34386        0.72476       -0.02629
C         13.65893        0.28848       -0.18748
C         13.03023        3.06522       -0.48413
C         14.33276        2.59268       -0.63772
C         14.64495        1.22799       -0.49254
H        -15.53889       -1.13603        1.18374
H        -13.80293       -2.84052        0.78139
H        -11.42290       -2.18922        0.41929
H        -14.96877        1.28955        1.24151
H         -9.03667       -0.81648        0.09850
H        -10.12980        4.07477        0.59986
H         -7.79574        3.32529        0.15767
H         -6.14890        1.74744        1.64611
H         -3.77077        1.11191        1.26079
H         -7.35984       -0.18721       -2.02402
H         -1.38810        0.10627        0.25677
H         -2.53603       -2.22104       -4.06013
H         -0.18688       -2.14303       -3.23537
H          1.44589       -0.01220       -2.78881
H          3.83673        0.04935       -2.09016
H          0.32300       -1.98374        0.88966
H          6.24744       -0.19471       -0.73891
H          5.20343       -2.48200        3.62544
H          7.53570       -1.81727        3.05625
H          9.13945       -2.62247        1.00596
H         11.51518       -2.05221        0.51913
H          7.96556        1.51796        0.61096
H         13.90512       -0.76522       -0.07643
H         12.79480        4.11752       -0.59708
H         15.13084        3.29555       -0.87620
H         15.67539        0.90385       -0.62144
