%nproc=1
%mem=1GB
%Chk=5.chk
#T PM6 OPT

c(s1)c(SC=CS2)c2c1c(s1)c(SC=CS2)c2c1c(s1)c(SC=CS2)c2c1c(s1)c(SC=CS2)c2c1

0  1
C           0.22177        -0.00716        -2.23704
S           0.46423         1.42832        -1.36692
C          -1.09584        -0.17694        -2.57394
S          -1.63571        -1.59387        -3.47120
C          -3.21177        -1.74660        -2.78967
C          -4.00772        -0.74283        -2.40522
S          -3.65618         0.94707        -2.51458
C          -1.92170         0.91409        -2.14223
C          -1.20010         1.91912        -1.48384
C          -1.62944         3.19785        -0.88229
S          -3.19162         3.34739        -0.16772
C          -0.95461         4.41013        -0.73498
S           0.67281         4.76690        -1.36945
C           1.25104         5.74581        -0.06752
C           0.53345         6.67693         0.57063
S          -1.10932         7.06427         0.23638
C          -1.72736         5.41803        -0.04238
C          -2.98000         4.97102         0.36071
C          -4.05872         5.66858         1.07838
S          -4.42824         7.30737         0.71866
C          -4.93415         5.21622         2.05868
S          -4.85664         3.61061         2.81801
C          -6.54670         3.28955         2.91903
C          -7.49526         4.19075         3.23136
S          -7.21579         5.84197         3.60955
C          -5.91290         6.20503         2.45282
C          -5.70419         7.45012         1.86316
C          -6.36396         8.74895         2.09236
S          -6.98314         9.14290         3.67000
C          -6.55637         9.84853         1.25088
S          -6.13791         9.95127        -0.47072
C          -5.52331        11.56936        -0.46598
C          -6.06371        12.60522         0.19131
S          -7.48556        12.53546         1.17683
C          -7.18092        10.95988         1.90916
C          -7.53811        10.67518         3.20032
H           1.05150        -0.66961        -2.44800
H          -3.58754        -2.76400        -2.70207
H          -4.99412        -0.99369        -2.02452
H           2.29179         5.61289         0.21409
H           1.01199         7.27333         1.34123
H          -6.85280         2.26373         2.75493
H          -8.52151         3.85263         3.30438
H          -4.63522        11.73925        -1.06690
H          -5.59503        13.58074         0.09896
H          -8.05800        11.31079         3.90494


--Link1--
%nproc=1
%mem=1GB
%Chk=5.chk
%NoSave
# Geom=AllCheck ZINDO(NStates=15,Singlets)
