%nproc=1
%mem=1GB
%Chk=6.chk
#T PM6 OPT

c(s1)c(N(=O)=O)c(N)c1c(s1)c(N(=O)=O)c(N)c1c(s1)c(N(=O)=O)c(N)c1c(s1)c(N(=O)=O)c(N)c1

0  1
C           0.15815         1.89653        -0.08376
S           1.79584         1.45995        -0.23069
C          -0.65914         0.80393         0.10895
N          -2.09636         0.94347         0.25452
O          -2.55763         2.09721         0.21538
O          -2.76609        -0.08602         0.39341
C           0.10048        -0.42400         0.14261
N          -0.49129        -1.62870         0.32924
C           1.47804        -0.22811        -0.02881
C           2.57416        -1.20964        -0.09138
S           2.26101        -2.79691        -0.70231
C           3.93228        -1.11430         0.20353
N           4.59060         0.06418         0.70519
O           4.19637         0.51340         1.78861
O           5.55932         0.47766         0.05441
C           4.65265        -2.35751         0.02776
N           5.98125        -2.46447         0.28579
C           3.83145        -3.41334        -0.35497
C           4.14371        -4.84099        -0.53370
S           5.73787        -5.33734        -0.97016
C           3.33928        -5.97249        -0.44301
N           1.94438        -5.94828        -0.11326
O           1.63930        -5.52789         1.01698
O           1.16578        -6.37968        -0.96479
C           4.03093        -7.20900        -0.71715
N           3.40622        -8.41799        -0.70927
C           5.38735        -7.02163        -0.95703
C           6.43270        -8.01111        -1.23882
S           6.03017        -9.47094        -2.08590
C           7.80314        -8.00037        -0.97194
N           8.47526        -6.93137        -0.29707
O           8.13977        -6.70090         0.87021
O           9.35707        -6.33873        -0.93476
C           8.47994        -9.18787        -1.41323
N           9.79285        -9.46777        -1.26193
C           7.62059       -10.07308        -2.01272
H          -0.13724         2.93743        -0.14676
H          -1.51172        -1.72754         0.30848
H          -0.00440        -2.52006         0.29049
H           6.58228        -1.64988         0.43117
H           6.51381        -3.32655         0.18650
H           2.39611        -8.48390        -0.86567
H           3.87763        -9.26016        -1.03789
H          10.46738        -8.82135        -0.85368
H          10.21909       -10.33286        -1.58746
H           7.84843       -11.04793        -2.42309


--Link1--
%nproc=1
%mem=1GB
%Chk=6.chk
%NoSave
# Geom=AllCheck ZINDO(NStates=15,Singlets)
