%nproc=1
%mem=1GB
%Chk=6.chk
#T PM6 OPT

c(s1)c(N(=O)=O)c(N)c1c(s1)c(N(=O)=O)c(N)c1c(s1)c(N(=O)=O)c(N)c1c(s1)c(N(=O)=O)c(N)c1

0  1
C           0.24193         1.98969        -0.12199
S           1.86886         1.50822        -0.25336
C          -0.60114         0.92409         0.10554
N          -2.03477         1.10345         0.25480
O          -2.47024         2.26455         0.17584
O          -2.72727         0.09475         0.43592
C           0.12770        -0.32365         0.15721
N          -0.50160        -1.50598         0.36492
C           1.51036        -0.17044        -0.02382
C           2.58696        -1.17973        -0.07766
S           2.24128        -2.77035        -0.66684
C           3.94950        -1.10913         0.20926
N           4.63476         0.06090         0.69707
O           4.25492         0.52791         1.77891
O           5.60641         0.44950         0.03751
C           4.65206        -2.36375         0.02690
N           5.97974        -2.49038         0.28316
C           3.81973        -3.40432        -0.37221
C           4.12276        -4.83037        -0.60048
S           5.69810        -5.33145        -1.11126
C           3.31338        -5.95860        -0.51138
N           1.93880        -5.93288        -0.11178
O           1.69960        -5.56828         1.05342
O           1.11223        -6.30834        -0.94273
C           3.97467        -7.18942        -0.86328
N           3.34313        -8.39533        -0.87795
C           5.32374        -7.01321        -1.14448
C           6.33128        -8.02797        -1.47921
S           5.85058        -9.47217        -2.31870
C           7.70816        -8.06990        -1.25655
N           8.43943        -7.02737        -0.60225
O           8.11884        -6.75455         0.56014
O           9.35004        -6.49641        -1.25271
C           8.32532        -9.28144        -1.72503
N           9.63037        -9.61427        -1.62074
C           7.41623       -10.13219        -2.29964
H          -0.02947         3.03516        -0.21631
H          -1.52618        -1.56140         0.36866
H          -0.05733        -2.41455         0.26893
H           6.59153        -1.68139         0.41677
H           6.50343        -3.35583         0.16754
H           2.32655        -8.46367        -0.95916
H           3.79530        -9.21489        -1.28476
H          10.34886        -8.97905        -1.27464
H          10.01418       -10.47575        -2.00414
H           7.59439       -11.11198        -2.72296


--Link1--
%nproc=1
%mem=1GB
%Chk=6.chk
%NoSave
# Geom=AllCheck ZINDO(NStates=15,Singlets)
