46
	Energy: -187867.3258099
C         -6.64319        0.84512       -0.06827
S         -5.26574        1.81549       -0.05140
C         -6.34473       -0.51122       -0.04970
N         -7.37075       -1.52570       -0.05924
O         -8.53583       -1.17049       -0.08474
O         -7.01396       -2.70518       -0.04102
C         -4.91129       -0.77933       -0.02014
N         -4.43282       -2.04293        0.00157
C         -4.15188        0.43014       -0.01785
C         -2.78822        0.63012        0.00445
S         -1.70427       -0.72817        0.03552
C         -2.04634        1.84556        0.00801
N         -2.63513        3.12255       -0.01253
O         -3.88721        3.23983       -0.03723
O         -1.92944        4.13094       -0.00663
C         -0.59895        1.63709        0.03564
N          0.26009        2.67968        0.04889
C         -0.22820        0.26044        0.04837
C          1.00041       -0.35284        0.06198
S          2.45875        0.59955        0.07228
C          1.32550       -1.74376        0.08014
N          0.37845       -2.77817        0.09439
O         -0.85382       -2.52019        0.07703
O          0.74321       -3.95520        0.12506
C          2.76549       -1.98979        0.08902
N          3.26853       -3.24771        0.14869
C          3.54618       -0.80728        0.04340
C          4.90433       -0.59016       -0.04136
S          6.03619       -1.91178       -0.23464
C          5.63688        0.62547       -0.01694
N          5.06726        1.90156        0.07240
O          3.80993        2.03366        0.13309
O          5.77091        2.90738        0.08250
C          7.09466        0.40689       -0.10171
N          8.00637        1.43496       -0.00559
C          7.43815       -0.91827       -0.22991
H         -7.65625        1.24549       -0.09115
H         -5.08664       -2.83967       -0.00279
H         -3.44898       -2.28597        0.02349
H         -0.08879        3.64840        0.03726
H          1.27194        2.58969        0.07194
H          2.64287       -4.06298        0.17685
H          4.25571       -3.44900        0.22085
H          7.69672        2.40334       -0.02115
H          8.97549        1.26345       -0.21151
H          8.42169       -1.33877       -0.30737
