38
	Energy: -163834.0015581
C         -7.64890       -0.83021        0.00021
S         -6.24262       -1.85162        0.00052
C         -7.29138        0.47810       -0.00025
C         -5.85403        0.67019       -0.00035
N         -5.28326        1.98756       -0.00072
O         -6.00858        2.96104       -0.00140
O         -4.02895        2.09764       -0.00028
C         -5.13051       -0.51793        0.00001
C         -3.73160       -0.72510        0.00001
S         -2.63549        0.66678        0.00007
C         -3.01991       -1.89738       -0.00001
C         -1.59999       -1.69227        0.00009
N         -0.69618       -2.80690        0.00015
O         -1.14124       -3.93929        0.00040
O          0.53944       -2.58313       -0.00007
C         -1.22925       -0.34322        0.00015
C          0.06653        0.22082        0.00018
S          1.50032       -0.81985       -0.00005
C          0.43713        1.54281        0.00038
C          1.85903        1.73027        0.00034
N          2.42812        3.04855        0.00052
O          1.69236        4.01842        0.00083
O          3.67537        3.16091        0.00038
C          2.58232        0.53202        0.00011
C          3.98135        0.33140        0.00001
S          5.09934        1.69897        0.00006
C          4.68508       -0.85457       -0.00015
C          6.09960       -0.64588       -0.00023
N          7.04832       -1.75815       -0.00040
O          6.59211       -2.89084       -0.00048
O          8.23890       -1.48671       -0.00051
C          6.47049        0.68619       -0.00011
H         -8.64378       -1.25018        0.00039
H         -7.96917        1.32977       -0.00052
H         -3.44225       -2.90188       -0.00004
H         -0.24316        2.39563        0.00061
H          4.25442       -1.85523       -0.00014
H          7.48891        1.06013       -0.00016
