70
	Energy: -215057.1422527
C          8.47540        0.74428       -0.55728
S          7.10376        1.75178       -0.89983
C          8.08080       -0.39982        0.06250
C          6.64928       -0.48178        0.28096
C          6.04583       -1.63923        0.95470
C          5.28147       -1.45640        2.12096
C          4.71506       -2.55285        2.77321
C          4.93083       -3.82256        2.22887
F          4.39107       -4.87716        2.84346
C          5.68489       -4.04106        1.07219
C          6.24562       -2.93095        0.43755
C          5.97448        0.61944       -0.18929
C          4.58404        0.93923       -0.20466
S          3.41411       -0.31609       -0.55516
C          3.94779        2.13373       -0.00839
C          2.51244        2.05214       -0.13678
C          1.66121        3.23927        0.03815
C          1.12452        3.88827       -1.08754
C          0.33451        5.02909       -0.93215
C          0.09926        5.49142        0.36631
F         -0.65497        6.58085        0.52506
C          0.61788        4.87021        1.50639
C          1.40825        3.73272        1.32916
C          2.06171        0.78544       -0.42933
C          0.73596        0.29500       -0.61215
S         -0.61801        1.39495       -0.43118
C          0.28507       -0.95978       -0.91580
C         -1.15515       -1.05357       -1.00879
C         -1.82034       -2.32847       -1.31191
C         -2.77077       -2.40562       -2.34503
C         -3.40199       -3.61628       -2.63698
C         -3.06036       -4.73513       -1.87196
F         -3.65947       -5.89690       -2.14169
C         -2.12126       -4.69552       -0.83689
C         -1.50010       -3.47567       -0.56380
C         -1.78933        0.14399       -0.78064
C         -3.18534        0.45856       -0.75907
S         -3.89902        1.42250       -2.04208
C         -4.14480        0.10420        0.14339
C         -5.46304        0.61152       -0.18882
C         -6.63313        0.34120        0.65773
C         -7.46887        1.39750        1.06085
C         -8.58421        1.15118        1.86392
C         -8.83760       -0.16939        2.24589
F         -9.90187       -0.41603        3.01260
C         -8.02937       -1.24435        1.86332
C         -6.91811       -0.97507        1.06271
C         -5.48387        1.34286       -1.34316
H          9.47340        1.04798       -0.82690
H          8.74281       -1.19303        0.38738
H          5.13162       -0.45097        2.51810
H          4.12214       -2.41822        3.67678
H          5.83236       -5.04396        0.67443
H          6.83621       -3.06646       -0.46940
H          4.44024        3.06989        0.22681
H          1.32991        3.50123       -2.08721
H         -0.08648        5.53729       -1.79850
H          0.41284        5.25659        2.50362
H          1.82749        3.22140        2.19660
H          0.91440       -1.82482       -1.08763
H         -3.01607       -1.51350       -2.92456
H         -4.13785       -3.68117       -3.43725
H         -1.87865       -5.58615       -0.25922
H         -0.76580       -3.41131        0.24048
H         -3.96809       -0.48679        1.03319
H         -7.24048        2.41776        0.75012
H         -9.23320        1.96589        2.18145
H         -8.25666       -2.26213        2.17722
H         -6.27034       -1.79288        0.74299
H         -6.32820        1.81980       -1.81109
