42
	Energy:  -92133.3719495
C         -6.62649        0.12080        0.62476
C         -5.32833        0.85219        0.61091
C         -5.07446        2.05116        1.13168
C         -6.45456       -1.08073        0.02376
C         -5.05116       -1.20650       -0.42228
C         -4.37438       -0.07270       -0.08952
C         -2.98933        0.24713       -0.34970
C         -1.85163       -0.68494       -0.05792
C         -1.90822       -1.87632        0.53391
C         -2.48011        1.39041       -0.88830
C         -1.01734        1.26829       -0.99614
C         -0.63049        0.05006       -0.52378
C          0.70582       -0.49677       -0.46518
C          1.88994        0.25461        0.06642
C          1.90229        1.46019        0.63156
C          1.12534       -1.72886       -0.86818
C          2.57632       -1.84580       -0.64654
C          3.04482       -0.68343       -0.11335
C          4.40802       -0.36850        0.25349
C          5.16557        0.82041       -0.26263
C          4.75567        1.73640       -1.13798
C          5.22907       -1.06766        1.08396
C          6.53310       -0.37600        1.16862
C          6.50303        0.73082        0.38873
H         -7.51587        0.53394        1.06030
H         -5.82386        2.65141        1.62899
H         -4.09637        2.51451        1.10104
H         -7.18303       -1.85518       -0.13501
H         -4.67683       -2.07085       -0.93895
H         -2.83489       -2.32741        0.86671
H         -1.03133       -2.47916        0.73500
H         -3.02026        2.25979       -1.21683
H         -0.39538        2.04090       -1.41004
H          1.01244        2.06397        0.75750
H          2.80438        1.92221        1.01465
H          0.53505       -2.51564       -1.30184
H          3.13764       -2.72777       -0.89626
H          3.76935        1.72443       -1.58588
H          5.37574        2.55667       -1.47190
H          5.00993       -1.97195        1.62077
H          7.34276       -0.74166        1.77393
H          7.27557        1.45613        0.22022
